

        *** GPGPU-Sim version 3.0.1 (build 11015) ***


GPGPU-Sim PTX: simulation mode 0 (can change with PTX_SIM_MODE_FUNC environment variable:
               1=functional simulation only, 0=detailed performance simulator)
GPGPU-Sim: Configuration options:

-network_mode                           1 # Interconnection network mode
-inter_config_file   icnt_config_quadro_islip.txt # Interconnection network config file
-gpgpu_ptx_convert_to_ptxplus                    0 # Convert embedded ptx to ptxplus
-gpgpu_ptx_save_converted_ptxplus                    0 # Saved converted ptxplus to a file
-gpgpu_ptx_force_max_capability                   12 # Force maximum compute capability
-gpgpu_ptx_inst_debug_to_file                    0 # Dump executed instructions' debug information to file
-gpgpu_ptx_inst_debug_file       inst_debug.txt # Executed instructions' debug output file
-gpgpu_ptx_inst_debug_thread_uid                    1 # Thread UID for executed instructions' debug output
-gpgpu_simd_model                       1 # 1 = post-dominator
-gpgpu_shader_core_pipeline              1024:32 # shader core pipeline config, i.e., {<nthread>:<warpsize>}
-gpgpu_tex_cache:l1  8:128:5:L:R:m,F:128:4,128:2 # per-shader L1 texture cache  (READ-ONLY) config  {<nsets>:<bsize>:<assoc>:<rep>:<wr>:<alloc>,<mshr>:<N>:<merge>,<mq>:<rf>}
-gpgpu_const_cache:l1 64:64:2:L:R:f,A:2:32,4 # per-shader L1 constant memory cache  (READ-ONLY) config  {<nsets>:<bsize>:<assoc>:<rep>:<wr>:<alloc>,<mshr>:<N>:<merge>,<mq>}
-gpgpu_cache:il1     4:256:4:L:R:f,A:2:32,4 # shader L1 instruction cache config  {<nsets>:<bsize>:<assoc>:<rep>:<wr>:<alloc>,<mshr>:<N>:<merge>,<mq>}
-gpgpu_cache:dl1                     none # per-shader L1 data cache config  {<nsets>:<bsize>:<assoc>:<rep>:<wr>:<alloc>,<mshr>:<N>:<merge>,<mq>|none}
-gpgpu_perfect_mem                      0 # enable perfect memory mode (no cache miss)
-gpgpu_shader_registers                16384 # Number of registers per shader core. Limits number of concurrent CTAs. (default 8192)
-gpgpu_shader_cta                       8 # Maximum number of concurrent CTAs in shader (default 8)
-gpgpu_n_clusters                      10 # number of processing clusters
-gpgpu_n_cores_per_cluster                    3 # number of simd cores per cluster
-gpgpu_n_cluster_ejection_buffer_size                    8 # number of packets in ejection buffer
-gpgpu_n_ldst_response_buffer_size                    2 # number of response packets in ld/st unit ejection buffer
-gpgpu_shmem_size                   16384 # Size of shared memory per shader core (default 16kB)
-gpgpu_shmem_warp_parts                    2 # Number of portions a warp is divided into for shared memory bank conflict check 
-gpgpu_warpdistro_shader                   -1 # Specify which shader core to collect the warp size distribution from
-gpgpu_local_mem_map                    1 # Mapping from local memory space address to simulated GPU physical address space (default = enabled)
-gpgpu_num_reg_banks                    8 # Number of register banks (default = 8)
-gpgpu_reg_bank_use_warp_id                    0 # Use warp ID in mapping registers to banks (default = off)
-gpgpu_operand_collector_num_units_sp                    6 # number of collector units (default = 4)
-gpgpu_operand_collector_num_units_sfu                    8 # number of collector units (default = 4)
-gpgpu_operand_collector_num_units_mem                    2 # number of collector units (default = 2)
-gpgpu_operand_collector_num_units_gen                    0 # number of collector units (default = 0)
-gpgpu_operand_collector_num_in_ports_sp                    1 # number of collector unit in ports (default = 1)
-gpgpu_operand_collector_num_in_ports_sfu                    1 # number of collector unit in ports (default = 1)
-gpgpu_operand_collector_num_in_ports_mem                    1 # number of collector unit in ports (default = 1)
-gpgpu_operand_collector_num_in_ports_gen                    0 # number of collector unit in ports (default = 0)
-gpgpu_operand_collector_num_out_ports_sp                    1 # number of collector unit in ports (default = 1)
-gpgpu_operand_collector_num_out_ports_sfu                    1 # number of collector unit in ports (default = 1)
-gpgpu_operand_collector_num_out_ports_mem                    1 # number of collector unit in ports (default = 1)
-gpgpu_operand_collector_num_out_ports_gen                    0 # number of collector unit in ports (default = 0)
-gpgpu_coalesce_arch                   13 # Coalescing arch (default = 13, anything else is off for now)
-gpgpu_num_sched_per_core                    1 # Number of warp schedulers per core
-gpgpu_max_insn_issue_per_warp                    2 # Max number of instructions that can be issued per warp in one cycle by scheduler
-gpgpu_dram_scheduler                    1 # 0 = fifo, 1 = FR-FCFS (defaul)
-gpgpu_dram_partition_queues              8:8:8:8 # i2$:$2d:d2$:$2i
-l2_ideal                               0 # Use a ideal L2 cache that always hit
-gpgpu_cache:dl2     64:32:8:L:R:m,A:16:4,4 # unified banked L2 data cache config  {<nsets>:<bsize>:<assoc>:<rep>:<wr>:<alloc>,<mshr>:<N>:<merge>,<mq>}
-gpgpu_cache:dl2_texture_only                    0 # L2 cache used for texture only
-gpgpu_n_mem                            8 # number of memory modules (e.g. memory controllers) in gpu
-gpgpu_n_mem_per_ctrlr                    2 # number of memory chips per memory controller
-gpgpu_memlatency_stat                   14 # track and display latency statistics 0x2 enables MC, 0x4 enables queue logs
-gpgpu_dram_sched_queue_size                   16 # 0 = unlimited (default); # entries per chip
-gpgpu_dram_buswidth                    4 # default = 4 bytes (8 bytes per cycle at DDR)
-gpgpu_dram_burst_length                    4 # Burst length of each DRAM request (default = 4 DDR cycle)
-gpgpu_dram_timing_opt 8:2:8:12:25:10:35:10:7:6:11 # DRAM timing parameters = {nbk:tCCD:tRRD:tRCD:tRAS:tRP:tRC:CL:WL:tCDLR:tWR}
-gpgpu_mem_addr_mapping dramid@8;00000000.00000000.00000000.00000000.0000RRRR.RRRRRRRR.RRBBBCCC.CCCSSSSS # mapping memory address to dram model {dramid@<start bit>;<memory address map>}
-gpgpu_mem_address_mask                    1 # 0 = old addressing mask, 1 = new addressing mask, 2 = new add. mask + flipped bank sel and chip sel bits
-gpgpu_max_cycle                        0 # terminates gpu simulation early (0 = no limit)
-gpgpu_max_insn                         0 # terminates gpu simulation early (0 = no limit)
-gpgpu_max_cta                          0 # terminates gpu simulation early (0 = no limit)
-gpgpu_runtime_stat                   500 # display runtime statistics such as dram utilization {<freq>:<flag>}
-gpgpu_flush_cache                      0 # Flush cache at the end of each kernel call
-gpgpu_deadlock_detect                    1 # Stop the simulation at deadlock (1=on (default), 0=off)
-gpgpu_ptx_instruction_classification                    0 # if enabled will classify ptx instruction types per kernel (Max 255 kernels now)
-gpgpu_ptx_sim_mode                     0 # Select between Performance (default) or Functional simulation (1)
-gpgpu_clock_domains 325.0:650.0:650.0:800.0 # Clock Domain Frequencies in MhZ {<Core Clock>:<ICNT Clock>:<L2 Clock>:<DRAM Clock>}
-gpgpu_max_concurrent_kernel                    8 # maximum kernels that can run concurrently on GPU
-gpgpu_cflog_interval                    0 # Interval between each snapshot in control flow logger
-visualizer_enabled                     0 # Turn on visualizer output (1=On, 0=Off)
-visualizer_outputfile                 NULL # Specifies the output log file for visualizer
-visualizer_zlevel                      6 # Compression level of the visualizer output log (0=no comp, 9=highest)
-enable_ptx_file_line_stats                    1 # Turn on PTX source line statistic profiling. (1 = On)
-ptx_line_stats_filename gpgpu_inst_stats.txt # Output file for PTX source line statistics.
-save_embedded_ptx                      0 # saves ptx files embedded in binary as <n>.ptx
-keep                                   0 # keep intermediate files created by GPGPU-Sim when interfacing with external programs
addr_dec_mask[CHIP]  = 0000000000000700 	high:11 low:8
addr_dec_mask[BK]    = 000000000001c000 	high:17 low:14
addr_dec_mask[ROW]   = 000000007ffe0000 	high:31 low:17
addr_dec_mask[COL]   = 00000000000038ff 	high:14 low:0
addr_dec_mask[BURST] = 000000000000001f 	high:5 low:0
GPGPU-Sim uArch: clock freqs: 325000000.000000:650000000.000000:650000000.000000:800000000.000000
GPGPU-Sim uArch: clock periods: 0.00000000307692307692:0.00000000153846153846:0.00000000153846153846:0.00000000125000000000
*** Initializing Memory Statistics ***
GPGPU-Sim uArch: interconnect nodemap
GPGPU-Sim uArch:   0 
GPGPU-Sim uArch:   1   2   3   4 
GPGPU-Sim uArch:   5   6   7   8 
GPGPU-Sim uArch:   9  10  11  12 
GPGPU-Sim uArch:  13  14  15  16 
GPGPU-Sim uArch:  17 GPGPU-Sim uArch: performance model initialization complete.
GPGPU-Sim PTX: __cudaRegisterFatBinary found PTX versions for 'libor.cu', capability = compute_10
GPGPU-Sim PTX: Loading PTX for libor.cu, capability = compute_10
GPGPU-Sim PTX: allocating constant region for "N" from 0x100 to 0x104 (global memory space) 1
GPGPU-Sim PTX: allocating constant region for "Nmat" from 0x104 to 0x108 (global memory space) 2
GPGPU-Sim PTX: allocating constant region for "Nopt" from 0x108 to 0x10c (global memory space) 3
GPGPU-Sim PTX: allocating constant region for "delta" from 0x10c to 0x110 (global memory space) 4
GPGPU-Sim PTX: allocating constant region for "maturities" from 0x110 to 0x14c (global memory space) 5
GPGPU-Sim PTX: allocating constant region for "swaprates" from 0x168 to 0x1a4 (global memory space) 6
GPGPU-Sim PTX: allocating constant region for "lambda" from 0x1a4 to 0x2e4 (global memory space) 7
GPGPU-Sim PTX: allocating stack frame region for .local "__cuda___cuda_local_var_23064_32_S_b_16456" from 0x0 to 0xa0
GPGPU-Sim PTX: allocating stack frame region for .local "__cuda___cuda_local_var_23064_16_S_176616" from 0xa0 to 0x140
GPGPU-Sim PTX: allocating stack frame region for .local "__cuda___cuda_local_var_23165_16_L2_336776" from 0x140 to 0x3480
GPGPU-Sim PTX: allocating stack frame region for .local "__cuda___cuda_local_var_23064_23_B_b_1345613896" from 0x3480 to 0x3520
GPGPU-Sim PTX: allocating stack frame region for .local "__cuda___cuda_local_var_23064_9_B_1361614056" from 0x3520 to 0x35c0
GPGPU-Sim PTX: allocating stack frame region for .local "__cuda___cuda_local_var_23165_26_z_1377614216" from 0x35c0 to 0x3700
GPGPU-Sim PTX: allocating stack frame region for .local "__cuda___cuda_local_var_23165_9_L_1409614536" from 0x3700 to 0x3840
GPGPU-Sim PTX: instruction assembly for function '_Z28Pathcalc_Portfolio_KernelGPUPfS_'...   done.
GPGPU-Sim PTX: finding reconvergence points for '_Z28Pathcalc_Portfolio_KernelGPUPfS_'...
GPGPU-Sim PTX: Finding dominators for '_Z28Pathcalc_Portfolio_KernelGPUPfS_'...
GPGPU-Sim PTX: Finding immediate dominators for '_Z28Pathcalc_Portfolio_KernelGPUPfS_'...
GPGPU-Sim PTX: Finding postdominators for '_Z28Pathcalc_Portfolio_KernelGPUPfS_'...
GPGPU-Sim PTX: Finding immediate postdominators for '_Z28Pathcalc_Portfolio_KernelGPUPfS_'...
GPGPU-Sim PTX: pre-decoding instructions for '_Z28Pathcalc_Portfolio_KernelGPUPfS_'... GPGPU-Sim PTX: Reconvergence Pairs for _Z28Pathcalc_Portfolio_KernelGPUPfS_
GPGPU-Sim PTX:   branch pc = 64	target pc = 3216
GPGPU-Sim PTX:   branch pc = 384	target pc = 608
GPGPU-Sim PTX:   branch pc = 496	target pc = 504
GPGPU-Sim PTX:   branch pc = 504	target pc = 608
GPGPU-Sim PTX:   branch pc = 600	target pc = 608
GPGPU-Sim PTX:   branch pc = 608	target pc = 1128
GPGPU-Sim PTX:   branch pc = 656	target pc = 1104
GPGPU-Sim PTX:   branch pc = 1096	target pc = 1104
GPGPU-Sim PTX:   branch pc = 1120	target pc = 1128
GPGPU-Sim PTX:   branch pc = 1128	target pc = 1480
GPGPU-Sim PTX:   branch pc = 1352	target pc = 1360
GPGPU-Sim PTX:   branch pc = 1360	target pc = 1480
GPGPU-Sim PTX:   branch pc = 1472	target pc = 1480
GPGPU-Sim PTX:   branch pc = 1480	target pc = 1816
GPGPU-Sim PTX:   branch pc = 1656	target pc = 1760
GPGPU-Sim PTX:   branch pc = 1792	target pc = 1800
GPGPU-Sim PTX:   branch pc = 1800	target pc = 1816
GPGPU-Sim PTX:   branch pc = 1816	target pc = 2224
GPGPU-Sim PTX:   branch pc = 2064	target pc = 2168
GPGPU-Sim PTX:   branch pc = 2216	target pc = 2224
GPGPU-Sim PTX:   branch pc = 2224	target pc = 2384
GPGPU-Sim PTX:   branch pc = 2360	target pc = 2368
GPGPU-Sim PTX:   branch pc = 2368	target pc = 2384
GPGPU-Sim PTX:   branch pc = 2392	target pc = 2552
GPGPU-Sim PTX:   branch pc = 2544	target pc = 2552
GPGPU-Sim PTX:   branch pc = 2560	target pc = 2664
GPGPU-Sim PTX:   branch pc = 2656	target pc = 2664
GPGPU-Sim PTX:   branch pc = 2680	target pc = 3152
GPGPU-Sim PTX:   branch pc = 2720	target pc = 3120
GPGPU-Sim PTX:   branch pc = 3112	target pc = 3120
GPGPU-Sim PTX:   branch pc = 3144	target pc = 3152
GPGPU-Sim PTX:   branch pc = 3208	target pc = 3216
  done.
GPGPU-Sim PTX: allocating stack frame region for .local "__cuda___cuda_local_var_23127_27_B_1614864" from 0x0 to 0xa0
GPGPU-Sim PTX: allocating stack frame region for .local "__cuda___cuda_local_var_23191_9_L_17615024" from 0xa0 to 0x1e0
GPGPU-Sim PTX: allocating stack frame region for .local "__cuda___cuda_local_var_23127_34_S_49615344" from 0x1e0 to 0x280
GPGPU-Sim PTX: allocating stack frame region for .local "__cuda___cuda_local_var_23191_16_z_65615504" from 0x280 to 0x3c0
GPGPU-Sim PTX: instruction assembly for function '_Z29Pathcalc_Portfolio_KernelGPU2Pf'...   done.
GPGPU-Sim PTX: finding reconvergence points for '_Z29Pathcalc_Portfolio_KernelGPU2Pf'...
GPGPU-Sim PTX: Finding dominators for '_Z29Pathcalc_Portfolio_KernelGPU2Pf'...
GPGPU-Sim PTX: Finding immediate dominators for '_Z29Pathcalc_Portfolio_KernelGPU2Pf'...
GPGPU-Sim PTX: Finding postdominators for '_Z29Pathcalc_Portfolio_KernelGPU2Pf'...
GPGPU-Sim PTX: Finding immediate postdominators for '_Z29Pathcalc_Portfolio_KernelGPU2Pf'...
GPGPU-Sim PTX: pre-decoding instructions for '_Z29Pathcalc_Portfolio_KernelGPU2Pf'... GPGPU-Sim PTX: Reconvergence Pairs for _Z29Pathcalc_Portfolio_KernelGPU2Pf
GPGPU-Sim PTX:   branch pc = 3288	target pc = 4800
GPGPU-Sim PTX:   branch pc = 3496	target pc = 3616
GPGPU-Sim PTX:   branch pc = 3608	target pc = 3616
GPGPU-Sim PTX:   branch pc = 3616	target pc = 4072
GPGPU-Sim PTX:   branch pc = 3664	target pc = 4048
GPGPU-Sim PTX:   branch pc = 4040	target pc = 4048
GPGPU-Sim PTX:   branch pc = 4064	target pc = 4072
GPGPU-Sim PTX:   branch pc = 4072	target pc = 4304
GPGPU-Sim PTX:   branch pc = 4296	target pc = 4304
GPGPU-Sim PTX:   branch pc = 4304	target pc = 4584
GPGPU-Sim PTX:   branch pc = 4560	target pc = 4568
GPGPU-Sim PTX:   branch pc = 4568	target pc = 4584
GPGPU-Sim PTX:   branch pc = 4584	target pc = 4744
GPGPU-Sim PTX:   branch pc = 4720	target pc = 4728
GPGPU-Sim PTX:   branch pc = 4728	target pc = 4744
GPGPU-Sim PTX:   branch pc = 4792	target pc = 4800
  done.
GPGPU-Sim PTX: finished parsing EMBEDDED .ptx file _1.ptx
GPGPU-Sim PTX: extracting embedded .ptx to temporary file "_ptx_I9Zmsy"
GPGPU-Sim PTX: generating ptxinfo using "ptxas --gpu-name=sm_20 -v _ptx2_ary4rU --output-file /dev/null 2> _ptx_I9Zmsyinfo"
GPGPU-Sim PTX: Kernel '_Z29Pathcalc_Portfolio_KernelGPU2Pf' : regs=27, lmem=4, smem=0, cmem=496
GPGPU-Sim PTX: Kernel '_Z28Pathcalc_Portfolio_KernelGPUPfS_' : regs=36, lmem=4, smem=0, cmem=504
GPGPU-Sim PTX: removing ptxinfo using "rm -f _ptx_I9Zmsy _ptx2_ary4rU _ptx_I9Zmsyinfo"
GPGPU-Sim PTX: loading globals with explicit initializers... 
GPGPU-Sim PTX: finished loading globals (0 bytes total).
GPGPU-Sim PTX: loading constants with explicit initializers...  done.
GPGPU-Sim PTX: __cudaRegisterFunction _Z29Pathcalc_Portfolio_KernelGPU2Pf : hostFun 0x0x405d3e, fat_cubin_handle = 1
GPGPU-Sim PTX: __cudaRegisterFunction _Z28Pathcalc_Portfolio_KernelGPUPfS_ : hostFun 0x0x405cc3, fat_cubin_handle = 1
GPGPU-Sim PTX: __cudaRegisterVar: hostVar = 0x625d80; deviceAddress = N; deviceName = N
GPGPU-Sim PTX: __cudaRegisterVar: Registering const memory space of 4 bytes
GPGPU-Sim PTX registering constant N (4 bytes) to name mapping
GPGPU-Sim PTX: __cudaRegisterVar: hostVar = 0x625d84; deviceAddress = Nmat; deviceName = Nmat
GPGPU-Sim PTX: __cudaRegisterVar: Registering const memory space of 4 bytes
GPGPU-Sim PTX registering constant Nmat (4 bytes) to name mapping
GPGPU-Sim PTX: __cudaRegisterVar: hostVar = 0x625d88; deviceAddress = Nopt; deviceName = Nopt
GPGPU-Sim PTX: __cudaRegisterVar: Registering const memory space of 4 bytes
GPGPU-Sim PTX registering constant Nopt (4 bytes) to name mapping
GPGPU-Sim PTX: __cudaRegisterVar: hostVar = 0x625da0; deviceAddress = maturities; deviceName = maturities
GPGPU-Sim PTX: __cudaRegisterVar: Registering const memory space of 60 bytes
GPGPU-Sim PTX registering constant maturities (60 bytes) to name mapping
GPGPU-Sim PTX: __cudaRegisterVar: hostVar = 0x625ddc; deviceAddress = delta; deviceName = delta
GPGPU-Sim PTX: __cudaRegisterVar: Registering const memory space of 4 bytes
GPGPU-Sim PTX registering constant delta (4 bytes) to name mapping
GPGPU-Sim PTX: __cudaRegisterVar: hostVar = 0x625de0; deviceAddress = swaprates; deviceName = swaprates
GPGPU-Sim PTX: __cudaRegisterVar: Registering const memory space of 60 bytes
GPGPU-Sim PTX registering constant swaprates (60 bytes) to name mapping
GPGPU-Sim PTX: __cudaRegisterVar: hostVar = 0x625e20; deviceAddress = lambda; deviceName = lambda
GPGPU-Sim PTX: __cudaRegisterVar: Registering const memory space of 320 bytes
GPGPU-Sim PTX registering constant lambda (320 bytes) to name mapping
GPGPU-Sim PTX: cudaMemcpyToSymbol: symbol = 0x625d80
GPGPU-Sim PTX: starting gpgpu_ptx_sim_memcpy_symbol with hostVar 0x0x625d80
GPGPU-Sim PTX: gpgpu_ptx_sim_memcpy_symbol: Found PTX symbol w/ hostVar=0x625d80
GPGPU-Sim PTX: gpgpu_ptx_sim_memcpy_symbol: copying 4 bytes  to  symbol N+0 @0x100 ...
GPGPU-Sim PTX: cudaMemcpyToSymbol: symbol = 0x625d84
GPGPU-Sim PTX: starting gpgpu_ptx_sim_memcpy_symbol with hostVar 0x0x625d84
GPGPU-Sim PTX: gpgpu_ptx_sim_memcpy_symbol: Found PTX symbol w/ hostVar=0x625d84
GPGPU-Sim PTX: gpgpu_ptx_sim_memcpy_symbol: copying 4 bytes  to  symbol Nmat+0 @0x104 ...
GPGPU-Sim PTX: cudaMemcpyToSymbol: symbol = 0x625d88
GPGPU-Sim PTX: starting gpgpu_ptx_sim_memcpy_symbol with hostVar 0x0x625d88
GPGPU-Sim PTX: gpgpu_ptx_sim_memcpy_symbol: Found PTX symbol w/ hostVar=0x625d88
GPGPU-Sim PTX: gpgpu_ptx_sim_memcpy_symbol: copying 4 bytes  to  symbol Nopt+0 @0x108 ...
GPGPU-Sim PTX: cudaMemcpyToSymbol: symbol = 0x625ddc
GPGPU-Sim PTX: starting gpgpu_ptx_sim_memcpy_symbol with hostVar 0x0x625ddc
GPGPU-Sim PTX: gpgpu_ptx_sim_memcpy_symbol: Found PTX symbol w/ hostVar=0x625ddc
GPGPU-Sim PTX: gpgpu_ptx_sim_memcpy_symbol: copying 4 bytes  to  symbol delta+0 @0x10c ...
GPGPU-Sim PTX: cudaMemcpyToSymbol: symbol = 0x625da0
GPGPU-Sim PTX: starting gpgpu_ptx_sim_memcpy_symbol with hostVar 0x0x625da0
GPGPU-Sim PTX: gpgpu_ptx_sim_memcpy_symbol: Found PTX symbol w/ hostVar=0x625da0
GPGPU-Sim PTX: gpgpu_ptx_sim_memcpy_symbol: copying 60 bytes  to  symbol maturities+0 @0x12c ...
GPGPU-Sim PTX: cudaMemcpyToSymbol: symbol = 0x625de0
GPGPU-Sim PTX: starting gpgpu_ptx_sim_memcpy_symbol with hostVar 0x0x625de0
GPGPU-Sim PTX: gpgpu_ptx_sim_memcpy_symbol: Found PTX symbol w/ hostVar=0x625de0
GPGPU-Sim PTX: gpgpu_ptx_sim_memcpy_symbol: copying 60 bytes  to  symbol swaprates+0 @0x168 ...
GPGPU-Sim PTX: cudaMemcpyToSymbol: symbol = 0x625e20
GPGPU-Sim PTX: starting gpgpu_ptx_sim_memcpy_symbol with hostVar 0x0x625e20
GPGPU-Sim PTX: gpgpu_ptx_sim_memcpy_symbol: Found PTX symbol w/ hostVar=0x625e20
GPGPU-Sim PTX: gpgpu_ptx_sim_memcpy_symbol: copying 320 bytes  to  symbol lambda+0 @0x280 ...
GPGPU-Sim: synchronize waiting for inactive GPU simulation
GPGPU-Sim API: Stream Manager State
GPGPU-Sim: detected inactive GPU simulation thread

GPGPU-Sim PTX: cudaLaunch for 0x0x405d3e (mode=performance simulation) on stream 0
GPGPU-Sim PTX: pushing kernel '_Z29Pathcalc_Portfolio_KernelGPU2Pf' to stream 0, gridDim= (64,1,1) blockDim = (64,1,1) 
kernel '_Z29Pathcalc_Portfolio_KernelGPU2Pf' transfer to GPU hardware scheduler
GPGPU-Sim uArch: Shader 3 bind to kernel 1 '_Z29Pathcalc_Portfolio_KernelGPU2Pf'
GPGPU-Sim uArch: CTA/core = 8, limited by: cta_limit
GPGPU-Sim uArch: core:  3, cta: 0 initialized @(1,0)
GPGPU-Sim uArch: Shader 9 bind to kernel 1 '_Z29Pathcalc_Portfolio_KernelGPU2Pf'
GPGPU-Sim uArch: core:  9, cta: 0 initialized @(1,0)
GPGPU-Sim uArch: Shader 18 bind to kernel 1 '_Z29Pathcalc_Portfolio_KernelGPU2Pf'
GPGPU-Sim uArch: core: 18, cta: 0 initialized @(1,0)
GPGPU-Sim uArch: Shader 0 bind to kernel 1 '_Z29Pathcalc_Portfolio_KernelGPU2Pf'
GPGPU-Sim uArch: core:  0, cta: 0 initialized @(1,0)
GPGPU-Sim uArch: Shader 15 bind to kernel 1 '_Z29Pathcalc_Portfolio_KernelGPU2Pf'
GPGPU-Sim uArch: core: 15, cta: 0 initialized @(1,0)
GPGPU-Sim uArch: Shader 4 bind to kernel 1 '_Z29Pathcalc_Portfolio_KernelGPU2Pf'
GPGPU-Sim uArch: core:  4, cta: 0 initialized @(1,0)
GPGPU-Sim uArch: Shader 24 bind to kernel 1 '_Z29Pathcalc_Portfolio_KernelGPU2Pf'
GPGPU-Sim uArch: core: 24, cta: 0 initialized @(1,0)
GPGPU-Sim uArch: Shader 19 bind to kernel 1 '_Z29Pathcalc_Portfolio_KernelGPU2Pf'
GPGPU-Sim uArch: core: 19, cta: 0 initialized @(1,0)
GPGPU-Sim uArch: Shader 16 bind to kernel 1 '_Z29Pathcalc_Portfolio_KernelGPU2Pf'
GPGPU-Sim uArch: core: 16, cta: 0 initialized @(1,0)
GPGPU-Sim uArch: Shader 17 bind to kernel 1 '_Z29Pathcalc_Portfolio_KernelGPU2Pf'
GPGPU-Sim uArch: core: 17, cta: 0 initialized @(1,0)
GPGPU-Sim uArch: Shader 20 bind to kernel 1 '_Z29Pathcalc_Portfolio_KernelGPU2Pf'
GPGPU-Sim uArch: core: 20, cta: 0 initialized @(2,0)
GPGPU-Sim uArch: Shader 25 bind to kernel 1 '_Z29Pathcalc_Portfolio_KernelGPU2Pf'
GPGPU-Sim uArch: core: 25, cta: 0 initialized @(2,0)
GPGPU-Sim uArch: Shader 5 bind to kernel 1 '_Z29Pathcalc_Portfolio_KernelGPU2Pf'
GPGPU-Sim uArch: core:  5, cta: 0 initialized @(2,0)
GPGPU-Sim uArch: core: 15, cta: 1 initialized @(2,0)
GPGPU-Sim uArch: Shader 1 bind to kernel 1 '_Z29Pathcalc_Portfolio_KernelGPU2Pf'
GPGPU-Sim uArch: core:  1, cta: 0 initialized @(2,0)
GPGPU-Sim uArch: core: 18, cta: 1 initialized @(2,0)
GPGPU-Sim uArch: Shader 10 bind to kernel 1 '_Z29Pathcalc_Portfolio_KernelGPU2Pf'
GPGPU-Sim uArch: core: 10, cta: 0 initialized @(2,0)
GPGPU-Sim uArch: core:  3, cta: 1 initialized @(2,0)
GPGPU-Sim uArch: Shader 2 bind to kernel 1 '_Z29Pathcalc_Portfolio_KernelGPU2Pf'
GPGPU-Sim uArch: core:  2, cta: 0 initialized @(2,0)
GPGPU-Sim uArch: core:  0, cta: 1 initialized @(2,0)
GPGPU-Sim uArch: core:  4, cta: 1 initialized @(3,0)
GPGPU-Sim uArch: Shader 11 bind to kernel 1 '_Z29Pathcalc_Portfolio_KernelGPU2Pf'
GPGPU-Sim uArch: core: 11, cta: 0 initialized @(3,0)
GPGPU-Sim uArch: core: 19, cta: 1 initialized @(3,0)
GPGPU-Sim uArch: core:  1, cta: 1 initialized @(3,0)
GPGPU-Sim uArch: core: 16, cta: 1 initialized @(3,0)
GPGPU-Sim uArch: core:  5, cta: 1 initialized @(3,0)
GPGPU-Sim uArch: Shader 26 bind to kernel 1 '_Z29Pathcalc_Portfolio_KernelGPU2Pf'
GPGPU-Sim uArch: core: 26, cta: 0 initialized @(3,0)
GPGPU-Sim uArch: core: 20, cta: 1 initialized @(3,0)
GPGPU-Sim uArch: core: 17, cta: 1 initialized @(3,0)
GPGPU-Sim uArch: core: 15, cta: 2 initialized @(3,0)
GPGPU-Sim uArch: core: 18, cta: 2 initialized @(4,0)
GPGPU-Sim uArch: core: 24, cta: 1 initialized @(4,0)
GPGPU-Sim uArch: core:  3, cta: 2 initialized @(4,0)
GPGPU-Sim uArch: core: 16, cta: 2 initialized @(4,0)
GPGPU-Sim uArch: core:  2, cta: 1 initialized @(4,0)
GPGPU-Sim uArch: core: 19, cta: 2 initialized @(4,0)
GPGPU-Sim uArch: core:  9, cta: 1 initialized @(4,0)
GPGPU-Sim uArch: core:  4, cta: 2 initialized @(4,0)
GPGPU-Sim uArch: core:  0, cta: 2 initialized @(4,0)
GPGPU-Sim uArch: core:  1, cta: 2 initialized @(4,0)
GPGPU-Sim uArch: core:  5, cta: 2 initialized @(5,0)
GPGPU-Sim uArch: core: 10, cta: 1 initialized @(5,0)
GPGPU-Sim uArch: core: 20, cta: 2 initialized @(5,0)
GPGPU-Sim uArch: core:  2, cta: 2 initialized @(5,0)
GPGPU-Sim uArch: core: 17, cta: 2 initialized @(5,0)
GPGPU-Sim uArch: Shader 6 bind to kernel 1 '_Z29Pathcalc_Portfolio_KernelGPU2Pf'
GPGPU-Sim uArch: core:  6, cta: 0 initialized @(5,0)
GPGPU-Sim uArch: Shader 7 bind to kernel 1 '_Z29Pathcalc_Portfolio_KernelGPU2Pf'
GPGPU-Sim uArch: core:  7, cta: 0 initialized @(5,0)
GPGPU-Sim uArch: core: 11, cta: 1 initialized @(6,0)
GPGPU-Sim uArch: Shader 21 bind to kernel 1 '_Z29Pathcalc_Portfolio_KernelGPU2Pf'
GPGPU-Sim uArch: core: 21, cta: 0 initialized @(6,0)
GPGPU-Sim uArch: Shader 8 bind to kernel 1 '_Z29Pathcalc_Portfolio_KernelGPU2Pf'
GPGPU-Sim uArch: core:  8, cta: 0 initialized @(6,0)
GPGPU-Sim uArch: core: 25, cta: 1 initialized @(6,0)
GPGPU-Sim uArch: Shader 22 bind to kernel 1 '_Z29Pathcalc_Portfolio_KernelGPU2Pf'
GPGPU-Sim uArch: core: 22, cta: 0 initialized @(6,0)
GPGPU-Sim uArch: Shader 23 bind to kernel 1 '_Z29Pathcalc_Portfolio_KernelGPU2Pf'
GPGPU-Sim uArch: core: 23, cta: 0 initialized @(6,0)
GPGPU-Sim uArch: core: 26, cta: 1 initialized @(7,0)
GPGPU-Sim uArch: core:  6, cta: 1 initialized @(7,0)
GPGPU-Sim uArch: core: 21, cta: 1 initialized @(7,0)
GPGPU-Sim uArch: core:  9, cta: 2 initialized @(7,0)
GPGPU-Sim uArch: core:  7, cta: 1 initialized @(7,0)
GPGPU-Sim uArch: core:  8, cta: 1 initialized @(7,0)
GPGPU-Sim uArch: core: 10, cta: 2 initialized @(8,0)
GPGPU-Sim uArch: core: 22, cta: 1 initialized @(8,0)
GPGPU-Sim uArch: core:  6, cta: 2 initialized @(8,0)
GPGPU-Sim uArch: core: 24, cta: 2 initialized @(8,0)
GPGPU-Sim uArch: core: 23, cta: 1 initialized @(8,0)
GPGPU-Sim uArch: cycles simulated: 500  inst.: 56000 (ipc=112.0) sim_rate=56000 (inst/sec) elapsed = 0:0:00:01 / Mon Nov 28 10:28:26 2011
GPGPU-Sim PTX: 100000 instructions simulated : ctaid=(40,0,0) tid=(63,0,0)
GPGPU-Sim PTX: 200000 instructions simulated : ctaid=(46,0,0) tid=(31,0,0)
GPGPU-Sim uArch: cycles simulated: 1000  inst.: 202592 (ipc=202.6) sim_rate=202592 (inst/sec) elapsed = 0:0:00:01 / Mon Nov 28 10:28:26 2011
GPGPU-Sim PTX: 300000 instructions simulated : ctaid=(31,0,0) tid=(63,0,0)
GPGPU-Sim uArch: cycles simulated: 1500  inst.: 338208 (ipc=225.5) sim_rate=338208 (inst/sec) elapsed = 0:0:00:01 / Mon Nov 28 10:28:26 2011
GPGPU-Sim PTX: 400000 instructions simulated : ctaid=(3,0,0) tid=(31,0,0)
GPGPU-Sim uArch: cycles simulated: 2000  inst.: 445664 (ipc=222.8) sim_rate=445664 (inst/sec) elapsed = 0:0:00:01 / Mon Nov 28 10:28:27 2011
GPGPU-Sim PTX: 500000 instructions simulated : ctaid=(54,0,0) tid=(31,0,0)
GPGPU-Sim uArch: cycles simulated: 2500  inst.: 562592 (ipc=225.0) sim_rate=562592 (inst/sec) elapsed = 0:0:00:01 / Mon Nov 28 10:28:27 2011
GPGPU-Sim PTX: 600000 instructions simulated : ctaid=(29,0,0) tid=(31,0,0)
GPGPU-Sim uArch: cycles simulated: 3000  inst.: 683968 (ipc=228.0) sim_rate=683968 (inst/sec) elapsed = 0:0:00:01 / Mon Nov 28 10:28:27 2011
GPGPU-Sim PTX: 700000 instructions simulated : ctaid=(54,0,0) tid=(63,0,0)
GPGPU-Sim PTX: 800000 instructions simulated : ctaid=(30,0,0) tid=(63,0,0)
GPGPU-Sim uArch: cycles simulated: 3500  inst.: 799808 (ipc=228.5) sim_rate=799808 (inst/sec) elapsed = 0:0:00:01 / Mon Nov 28 10:28:27 2011
GPGPU-Sim PTX: 900000 instructions simulated : ctaid=(6,0,0) tid=(63,0,0)
GPGPU-Sim uArch: cycles simulated: 4000  inst.: 908256 (ipc=227.1) sim_rate=908256 (inst/sec) elapsed = 0:0:00:01 / Mon Nov 28 10:28:27 2011
GPGPU-Sim PTX: 1000000 instructions simulated : ctaid=(51,0,0) tid=(31,0,0)
GPGPU-Sim uArch: cycles simulated: 4500  inst.: 1023424 (ipc=227.4) sim_rate=1023424 (inst/sec) elapsed = 0:0:00:01 / Mon Nov 28 10:28:27 2011
GPGPU-Sim PTX: 1100000 instructions simulated : ctaid=(60,0,0) tid=(31,0,0)
GPGPU-Sim uArch: cycles simulated: 5000  inst.: 1138240 (ipc=227.6) sim_rate=1138240 (inst/sec) elapsed = 0:0:00:01 / Mon Nov 28 10:28:27 2011
GPGPU-Sim PTX: 1200000 instructions simulated : ctaid=(54,0,0) tid=(31,0,0)
GPGPU-Sim uArch: cycles simulated: 5500  inst.: 1256000 (ipc=228.4) sim_rate=1256000 (inst/sec) elapsed = 0:0:00:01 / Mon Nov 28 10:28:27 2011
GPGPU-Sim PTX: 1300000 instructions simulated : ctaid=(51,0,0) tid=(31,0,0)
GPGPU-Sim uArch: cycles simulated: 6000  inst.: 1364032 (ipc=227.3) sim_rate=1364032 (inst/sec) elapsed = 0:0:00:01 / Mon Nov 28 10:28:27 2011
GPGPU-Sim PTX: 1400000 instructions simulated : ctaid=(14,0,0) tid=(31,0,0)
GPGPU-Sim PTX: 1500000 instructions simulated : ctaid=(41,0,0) tid=(63,0,0)
GPGPU-Sim uArch: cycles simulated: 6500  inst.: 1492512 (ipc=229.6) sim_rate=746256 (inst/sec) elapsed = 0:0:00:02 / Mon Nov 28 10:28:28 2011
GPGPU-Sim PTX: 1600000 instructions simulated : ctaid=(60,0,0) tid=(63,0,0)
GPGPU-Sim uArch: cycles simulated: 7000  inst.: 1656160 (ipc=236.6) sim_rate=828080 (inst/sec) elapsed = 0:0:00:02 / Mon Nov 28 10:28:28 2011
GPGPU-Sim PTX: 1700000 instructions simulated : ctaid=(45,0,0) tid=(63,0,0)
GPGPU-Sim PTX: 1800000 instructions simulated : ctaid=(35,0,0) tid=(31,0,0)
GPGPU-Sim uArch: cycles simulated: 7500  inst.: 1816992 (ipc=242.3) sim_rate=908496 (inst/sec) elapsed = 0:0:00:02 / Mon Nov 28 10:28:28 2011
GPGPU-Sim PTX: 1900000 instructions simulated : ctaid=(48,0,0) tid=(31,0,0)
GPGPU-Sim uArch: cycles simulated: 8000  inst.: 1976896 (ipc=247.1) sim_rate=988448 (inst/sec) elapsed = 0:0:00:02 / Mon Nov 28 10:28:28 2011
GPGPU-Sim PTX: 2000000 instructions simulated : ctaid=(63,0,0) tid=(63,0,0)
GPGPU-Sim PTX: 2100000 instructions simulated : ctaid=(62,0,0) tid=(31,0,0)
GPGPU-Sim uArch: cycles simulated: 8500  inst.: 2145120 (ipc=252.4) sim_rate=1072560 (inst/sec) elapsed = 0:0:00:02 / Mon Nov 28 10:28:28 2011
GPGPU-Sim PTX: 2200000 instructions simulated : ctaid=(51,0,0) tid=(63,0,0)
GPGPU-Sim PTX: 2300000 instructions simulated : ctaid=(16,0,0) tid=(31,0,0)
GPGPU-Sim uArch: cycles simulated: 9000  inst.: 2309792 (ipc=256.6) sim_rate=1154896 (inst/sec) elapsed = 0:0:00:02 / Mon Nov 28 10:28:28 2011