

        *** GPGPU-Sim version 3.0.1 (build 11015) ***


GPGPU-Sim PTX: simulation mode 0 (can change with PTX_SIM_MODE_FUNC environment variable:
               1=functional simulation only, 0=detailed performance simulator)
GPGPU-Sim: Configuration options:

-network_mode                           1 # Interconnection network mode
-inter_config_file   icnt_config_quadro_islip.txt # Interconnection network config file
-gpgpu_ptx_convert_to_ptxplus                    0 # Convert embedded ptx to ptxplus
-gpgpu_ptx_save_converted_ptxplus                    0 # Saved converted ptxplus to a file
-gpgpu_ptx_force_max_capability                   12 # Force maximum compute capability
-gpgpu_ptx_inst_debug_to_file                    0 # Dump executed instructions' debug information to file
-gpgpu_ptx_inst_debug_file       inst_debug.txt # Executed instructions' debug output file
-gpgpu_ptx_inst_debug_thread_uid                    1 # Thread UID for executed instructions' debug output
-gpgpu_simd_model                       1 # 1 = post-dominator
-gpgpu_shader_core_pipeline              1024:32 # shader core pipeline config, i.e., {<nthread>:<warpsize>}
-gpgpu_tex_cache:l1  8:128:5:L:R:m,F:128:4,128:2 # per-shader L1 texture cache  (READ-ONLY) config  {<nsets>:<bsize>:<assoc>:<rep>:<wr>:<alloc>,<mshr>:<N>:<merge>,<mq>:<rf>}
-gpgpu_const_cache:l1 64:64:2:L:R:f,A:2:32,4 # per-shader L1 constant memory cache  (READ-ONLY) config  {<nsets>:<bsize>:<assoc>:<rep>:<wr>:<alloc>,<mshr>:<N>:<merge>,<mq>}
-gpgpu_cache:il1     4:256:4:L:R:f,A:2:32,4 # shader L1 instruction cache config  {<nsets>:<bsize>:<assoc>:<rep>:<wr>:<alloc>,<mshr>:<N>:<merge>,<mq>}
-gpgpu_cache:dl1                     none # per-shader L1 data cache config  {<nsets>:<bsize>:<assoc>:<rep>:<wr>:<alloc>,<mshr>:<N>:<merge>,<mq>|none}
-gpgpu_perfect_mem                      0 # enable perfect memory mode (no cache miss)
-gpgpu_shader_registers                16384 # Number of registers per shader core. Limits number of concurrent CTAs. (default 8192)
-gpgpu_shader_cta                       8 # Maximum number of concurrent CTAs in shader (default 8)
-gpgpu_n_clusters                      10 # number of processing clusters
-gpgpu_n_cores_per_cluster                    3 # number of simd cores per cluster
-gpgpu_n_cluster_ejection_buffer_size                    8 # number of packets in ejection buffer
-gpgpu_n_ldst_response_buffer_size                    2 # number of response packets in ld/st unit ejection buffer
-gpgpu_shmem_size                   16384 # Size of shared memory per shader core (default 16kB)
-gpgpu_shmem_warp_parts                    2 # Number of portions a warp is divided into for shared memory bank conflict check 
-gpgpu_warpdistro_shader                   -1 # Specify which shader core to collect the warp size distribution from
-gpgpu_local_mem_map                    1 # Mapping from local memory space address to simulated GPU physical address space (default = enabled)
-gpgpu_num_reg_banks                    8 # Number of register banks (default = 8)
-gpgpu_reg_bank_use_warp_id                    0 # Use warp ID in mapping registers to banks (default = off)
-gpgpu_operand_collector_num_units_sp                    6 # number of collector units (default = 4)
-gpgpu_operand_collector_num_units_sfu                    8 # number of collector units (default = 4)
-gpgpu_operand_collector_num_units_mem                    2 # number of collector units (default = 2)
-gpgpu_operand_collector_num_units_gen                    0 # number of collector units (default = 0)
-gpgpu_operand_collector_num_in_ports_sp                    1 # number of collector unit in ports (default = 1)
-gpgpu_operand_collector_num_in_ports_sfu                    1 # number of collector unit in ports (default = 1)
-gpgpu_operand_collector_num_in_ports_mem                    1 # number of collector unit in ports (default = 1)
-gpgpu_operand_collector_num_in_ports_gen                    0 # number of collector unit in ports (default = 0)
-gpgpu_operand_collector_num_out_ports_sp                    1 # number of collector unit in ports (default = 1)
-gpgpu_operand_collector_num_out_ports_sfu                    1 # number of collector unit in ports (default = 1)
-gpgpu_operand_collector_num_out_ports_mem                    1 # number of collector unit in ports (default = 1)
-gpgpu_operand_collector_num_out_ports_gen                    0 # number of collector unit in ports (default = 0)
-gpgpu_coalesce_arch                   13 # Coalescing arch (default = 13, anything else is off for now)
-gpgpu_num_sched_per_core                    1 # Number of warp schedulers per core
-gpgpu_max_insn_issue_per_warp                    2 # Max number of instructions that can be issued per warp in one cycle by scheduler
-gpgpu_dram_scheduler                    1 # 0 = fifo, 1 = FR-FCFS (defaul)
-gpgpu_dram_partition_queues              8:8:8:8 # i2$:$2d:d2$:$2i
-l2_ideal                               0 # Use a ideal L2 cache that always hit
-gpgpu_cache:dl2     64:32:8:L:R:m,A:16:4,4 # unified banked L2 data cache config  {<nsets>:<bsize>:<assoc>:<rep>:<wr>:<alloc>,<mshr>:<N>:<merge>,<mq>}
-gpgpu_cache:dl2_texture_only                    0 # L2 cache used for texture only
-gpgpu_n_mem                            8 # number of memory modules (e.g. memory controllers) in gpu
-gpgpu_n_mem_per_ctrlr                    2 # number of memory chips per memory controller
-gpgpu_memlatency_stat                   14 # track and display latency statistics 0x2 enables MC, 0x4 enables queue logs
-gpgpu_dram_sched_queue_size                   16 # 0 = unlimited (default); # entries per chip
-gpgpu_dram_buswidth                    4 # default = 4 bytes (8 bytes per cycle at DDR)
-gpgpu_dram_burst_length                    4 # Burst length of each DRAM request (default = 4 DDR cycle)
-gpgpu_dram_timing_opt 8:2:8:12:25:10:35:10:7:6:11 # DRAM timing parameters = {nbk:tCCD:tRRD:tRCD:tRAS:tRP:tRC:CL:WL:tCDLR:tWR}
-gpgpu_mem_addr_mapping dramid@8;00000000.00000000.00000000.00000000.0000RRRR.RRRRRRRR.RRBBBCCC.CCCSSSSS # mapping memory address to dram model {dramid@<start bit>;<memory address map>}
-gpgpu_mem_address_mask                    1 # 0 = old addressing mask, 1 = new addressing mask, 2 = new add. mask + flipped bank sel and chip sel bits
-gpgpu_max_cycle                        0 # terminates gpu simulation early (0 = no limit)
-gpgpu_max_insn                         0 # terminates gpu simulation early (0 = no limit)
-gpgpu_max_cta                          0 # terminates gpu simulation early (0 = no limit)
-gpgpu_runtime_stat                   500 # display runtime statistics such as dram utilization {<freq>:<flag>}
-gpgpu_flush_cache                      0 # Flush cache at the end of each kernel call
-gpgpu_deadlock_detect                    1 # Stop the simulation at deadlock (1=on (default), 0=off)
-gpgpu_ptx_instruction_classification                    0 # if enabled will classify ptx instruction types per kernel (Max 255 kernels now)
-gpgpu_ptx_sim_mode                     0 # Select between Performance (default) or Functional simulation (1)
-gpgpu_clock_domains 325.0:650.0:650.0:800.0 # Clock Domain Frequencies in MhZ {<Core Clock>:<ICNT Clock>:<L2 Clock>:<DRAM Clock>}
-gpgpu_max_concurrent_kernel                    8 # maximum kernels that can run concurrently on GPU
-gpgpu_cflog_interval                    0 # Interval between each snapshot in control flow logger
-visualizer_enabled                     0 # Turn on visualizer output (1=On, 0=Off)
-visualizer_outputfile                 NULL # Specifies the output log file for visualizer
-visualizer_zlevel                      6 # Compression level of the visualizer output log (0=no comp, 9=highest)
-enable_ptx_file_line_stats                    1 # Turn on PTX source line statistic profiling. (1 = On)
-ptx_line_stats_filename gpgpu_inst_stats.txt # Output file for PTX source line statistics.
-save_embedded_ptx                      0 # saves ptx files embedded in binary as <n>.ptx
-keep                                   0 # keep intermediate files created by GPGPU-Sim when interfacing with external programs
addr_dec_mask[CHIP]  = 0000000000000700 	high:11 low:8
addr_dec_mask[BK]    = 000000000001c000 	high:17 low:14
addr_dec_mask[ROW]   = 000000007ffe0000 	high:31 low:17
addr_dec_mask[COL]   = 00000000000038ff 	high:14 low:0
addr_dec_mask[BURST] = 000000000000001f 	high:5 low:0
GPGPU-Sim uArch: clock freqs: 325000000.000000:650000000.000000:650000000.000000:800000000.000000
GPGPU-Sim uArch: clock periods: 0.00000000307692307692:0.00000000153846153846:0.00000000153846153846:0.00000000125000000000
*** Initializing Memory Statistics ***
GPGPU-Sim uArch: interconnect nodemap
GPGPU-Sim uArch:   0 
GPGPU-Sim uArch:   1   2   3   4 
GPGPU-Sim uArch:   5   6   7   8 
GPGPU-Sim uArch:   9  10  11  12 
GPGPU-Sim uArch:  13  14  15  16 
GPGPU-Sim uArch:  17 GPGPU-Sim uArch: performance model initialization complete.
GPGPU-Sim PTX: __cudaRegisterFatBinary found PTX versions for 'NN.cu', capability = compute_10
GPGPU-Sim PTX: Loading PTX for NN.cu, capability = compute_10
GPGPU-Sim PTX: allocating constant region for "kernelTemplate" from 0x100 to 0x164 (global memory space) 1
GPGPU-Sim PTX: allocating constant region for "kernelTemplate2" from 0x190 to 0x1f4 (global memory space) 2
GPGPU-Sim PTX: instruction assembly for function '_Z17executeFirstLayerPfS_S_'...   done.
GPGPU-Sim PTX: finding reconvergence points for '_Z17executeFirstLayerPfS_S_'...
GPGPU-Sim PTX: Finding dominators for '_Z17executeFirstLayerPfS_S_'...
GPGPU-Sim PTX: Finding immediate dominators for '_Z17executeFirstLayerPfS_S_'...
GPGPU-Sim PTX: Finding postdominators for '_Z17executeFirstLayerPfS_S_'...
GPGPU-Sim PTX: Finding immediate postdominators for '_Z17executeFirstLayerPfS_S_'...
GPGPU-Sim PTX: pre-decoding instructions for '_Z17executeFirstLayerPfS_S_'... GPGPU-Sim PTX: Reconvergence Pairs for _Z17executeFirstLayerPfS_S_
GPGPU-Sim PTX:   branch pc = 280	target pc = 288
GPGPU-Sim PTX:   branch pc = 352	target pc = 704
GPGPU-Sim PTX:   branch pc = 584	target pc = 704
  done.
GPGPU-Sim PTX: instruction assembly for function '_Z18executeSecondLayerPfS_S_'...   done.
GPGPU-Sim PTX: finding reconvergence points for '_Z18executeSecondLayerPfS_S_'...
GPGPU-Sim PTX: Finding dominators for '_Z18executeSecondLayerPfS_S_'...
GPGPU-Sim PTX: Finding immediate dominators for '_Z18executeSecondLayerPfS_S_'...
GPGPU-Sim PTX: Finding postdominators for '_Z18executeSecondLayerPfS_S_'...
GPGPU-Sim PTX: Finding immediate postdominators for '_Z18executeSecondLayerPfS_S_'...
GPGPU-Sim PTX: pre-decoding instructions for '_Z18executeSecondLayerPfS_S_'... GPGPU-Sim PTX: Reconvergence Pairs for _Z18executeSecondLayerPfS_S_
GPGPU-Sim PTX:   branch pc = 1232	target pc = 1240
GPGPU-Sim PTX:   branch pc = 1304	target pc = 1656
GPGPU-Sim PTX:   branch pc = 1536	target pc = 1656
  done.
GPGPU-Sim PTX: instruction assembly for function '_Z17executeThirdLayerPfS_S_'...   done.
GPGPU-Sim PTX: finding reconvergence points for '_Z17executeThirdLayerPfS_S_'...
GPGPU-Sim PTX: Finding dominators for '_Z17executeThirdLayerPfS_S_'...
GPGPU-Sim PTX: Finding immediate dominators for '_Z17executeThirdLayerPfS_S_'...
GPGPU-Sim PTX: Finding postdominators for '_Z17executeThirdLayerPfS_S_'...
GPGPU-Sim PTX: Finding immediate postdominators for '_Z17executeThirdLayerPfS_S_'...
GPGPU-Sim PTX: pre-decoding instructions for '_Z17executeThirdLayerPfS_S_'... GPGPU-Sim PTX: Reconvergence Pairs for _Z17executeThirdLayerPfS_S_
GPGPU-Sim PTX:   branch pc = 1984	target pc = 1992
GPGPU-Sim PTX:   branch pc = 2056	target pc = 2408
GPGPU-Sim PTX:   branch pc = 2288	target pc = 2408
  done.
GPGPU-Sim PTX: instruction assembly for function '_Z18executeFourthLayerPfS_S_'...   done.
GPGPU-Sim PTX: finding reconvergence points for '_Z18executeFourthLayerPfS_S_'...
GPGPU-Sim PTX: Finding dominators for '_Z18executeFourthLayerPfS_S_'...
GPGPU-Sim PTX: Finding immediate dominators for '_Z18executeFourthLayerPfS_S_'...
GPGPU-Sim PTX: Finding postdominators for '_Z18executeFourthLayerPfS_S_'...
GPGPU-Sim PTX: Finding immediate postdominators for '_Z18executeFourthLayerPfS_S_'...
GPGPU-Sim PTX: pre-decoding instructions for '_Z18executeFourthLayerPfS_S_'... GPGPU-Sim PTX: Reconvergence Pairs for _Z18executeFourthLayerPfS_S_
GPGPU-Sim PTX:   branch pc = 2704	target pc = 2712
GPGPU-Sim PTX:   branch pc = 2776	target pc = 3128
GPGPU-Sim PTX:   branch pc = 3008	target pc = 3128
  done.
GPGPU-Sim PTX: finished parsing EMBEDDED .ptx file _1.ptx
GPGPU-Sim PTX: extracting embedded .ptx to temporary file "_ptx_UbyaGq"
GPGPU-Sim PTX: generating ptxinfo using "ptxas --gpu-name=sm_20 -v _ptx2_HNVBbE --output-file /dev/null 2> _ptx_UbyaGqinfo"
GPGPU-Sim PTX: Kernel '_Z18executeFourthLayerPfS_S_' : regs=12, lmem=0, smem=0, cmem=284
GPGPU-Sim PTX: Kernel '_Z17executeThirdLayerPfS_S_' : regs=12, lmem=0, smem=0, cmem=284
GPGPU-Sim PTX: Kernel '_Z18executeSecondLayerPfS_S_' : regs=22, lmem=0, smem=0, cmem=284
GPGPU-Sim PTX: Kernel '_Z17executeFirstLayerPfS_S_' : regs=16, lmem=0, smem=0, cmem=284
GPGPU-Sim PTX: removing ptxinfo using "rm -f _ptx_UbyaGq _ptx2_HNVBbE _ptx_UbyaGqinfo"
GPGPU-Sim PTX: loading globals with explicit initializers... 
GPGPU-Sim PTX: finished loading globals (0 bytes total).
GPGPU-Sim PTX: loading constants with explicit initializers...  done.
GPGPU-Sim PTX: __cudaRegisterFunction _Z18executeFourthLayerPfS_S_ : hostFun 0x0x403dbd, fat_cubin_handle = 1
GPGPU-Sim PTX: __cudaRegisterFunction _Z17executeThirdLayerPfS_S_ : hostFun 0x0x403ce2, fat_cubin_handle = 1
GPGPU-Sim PTX: __cudaRegisterFunction _Z18executeSecondLayerPfS_S_ : hostFun 0x0x403c07, fat_cubin_handle = 1
GPGPU-Sim PTX: __cudaRegisterFunction _Z17executeFirstLayerPfS_S_ : hostFun 0x0x403b2c, fat_cubin_handle = 1
GPGPU-Sim PTX: __cudaRegisterVar: hostVar = 0x60c280; deviceAddress = kernelTemplate; deviceName = kernelTemplate
GPGPU-Sim PTX: __cudaRegisterVar: Registering const memory space of 100 bytes
GPGPU-Sim PTX registering constant kernelTemplate (100 bytes) to name mapping
GPGPU-Sim PTX: __cudaRegisterVar: hostVar = 0x60c300; deviceAddress = kernelTemplate2; deviceName = kernelTemplate2
GPGPU-Sim PTX: __cudaRegisterVar: Registering const memory space of 100 bytes
GPGPU-Sim PTX registering constant kernelTemplate2 (100 bytes) to name mapping
magic number = 2051
number of items = 10000
number of rows = 28
number of rows = 28
NUM=15

GPGPU-Sim PTX: cudaLaunch for 0x0x403b2c (mode=performance simulation) on stream 0
GPGPU-Sim PTX: pushing kernel '_Z17executeFirstLayerPfS_S_' to stream 0, gridDim= (6,15,1) blockDim = (13,13,1) 
kernel '_Z17executeFirstLayerPfS_S_' transfer to GPU hardware scheduler
GPGPU-Sim uArch: Shader 3 bind to kernel 1 '_Z17executeFirstLayerPfS_S_'
GPGPU-Sim uArch: CTA/core = 5, limited by: threads regs
GPGPU-Sim uArch: core:  3, cta: 0 initialized @(1,0)
GPGPU-Sim uArch: Shader 9 bind to kernel 1 '_Z17executeFirstLayerPfS_S_'
GPGPU-Sim uArch: core:  9, cta: 0 initialized @(1,0)
GPGPU-Sim uArch: Shader 18 bind to kernel 1 '_Z17executeFirstLayerPfS_S_'
GPGPU-Sim uArch: core: 18, cta: 0 initialized @(1,0)
GPGPU-Sim uArch: Shader 0 bind to kernel 1 '_Z17executeFirstLayerPfS_S_'
GPGPU-Sim uArch: core:  0, cta: 0 initialized @(1,0)
GPGPU-Sim uArch: Shader 15 bind to kernel 1 '_Z17executeFirstLayerPfS_S_'
GPGPU-Sim uArch: core: 15, cta: 0 initialized @(1,0)
GPGPU-Sim uArch: Shader 4 bind to kernel 1 '_Z17executeFirstLayerPfS_S_'
GPGPU-Sim uArch: core:  4, cta: 0 initialized @(1,0)
GPGPU-Sim uArch: Shader 24 bind to kernel 1 '_Z17executeFirstLayerPfS_S_'
GPGPU-Sim uArch: core: 24, cta: 0 initialized @(1,0)
GPGPU-Sim uArch: Shader 19 bind to kernel 1 '_Z17executeFirstLayerPfS_S_'
GPGPU-Sim uArch: core: 19, cta: 0 initialized @(1,0)
GPGPU-Sim uArch: Shader 16 bind to kernel 1 '_Z17executeFirstLayerPfS_S_'
GPGPU-Sim uArch: core: 16, cta: 0 initialized @(1,0)
GPGPU-Sim uArch: Shader 17 bind to kernel 1 '_Z17executeFirstLayerPfS_S_'
GPGPU-Sim uArch: core: 17, cta: 0 initialized @(1,0)
GPGPU-Sim uArch: Shader 20 bind to kernel 1 '_Z17executeFirstLayerPfS_S_'
GPGPU-Sim uArch: core: 20, cta: 0 initialized @(2,0)
GPGPU-Sim uArch: Shader 25 bind to kernel 1 '_Z17executeFirstLayerPfS_S_'
GPGPU-Sim uArch: core: 25, cta: 0 initialized @(2,0)
GPGPU-Sim uArch: Shader 5 bind to kernel 1 '_Z17executeFirstLayerPfS_S_'
GPGPU-Sim uArch: core:  5, cta: 0 initialized @(2,0)
GPGPU-Sim uArch: core: 15, cta: 1 initialized @(2,0)
GPGPU-Sim uArch: Shader 1 bind to kernel 1 '_Z17executeFirstLayerPfS_S_'
GPGPU-Sim uArch: core:  1, cta: 0 initialized @(2,0)
GPGPU-Sim uArch: core: 18, cta: 1 initialized @(2,0)
GPGPU-Sim uArch: Shader 10 bind to kernel 1 '_Z17executeFirstLayerPfS_S_'
GPGPU-Sim uArch: core: 10, cta: 0 initialized @(2,0)
GPGPU-Sim uArch: core:  3, cta: 1 initialized @(2,0)
GPGPU-Sim uArch: Shader 2 bind to kernel 1 '_Z17executeFirstLayerPfS_S_'
GPGPU-Sim uArch: core:  2, cta: 0 initialized @(2,0)
GPGPU-Sim uArch: core:  0, cta: 1 initialized @(2,0)
GPGPU-Sim uArch: core:  4, cta: 1 initialized @(3,0)
GPGPU-Sim uArch: Shader 11 bind to kernel 1 '_Z17executeFirstLayerPfS_S_'
GPGPU-Sim uArch: core: 11, cta: 0 initialized @(3,0)
GPGPU-Sim uArch: core: 19, cta: 1 initialized @(3,0)
GPGPU-Sim uArch: core:  1, cta: 1 initialized @(3,0)
GPGPU-Sim uArch: core: 16, cta: 1 initialized @(3,0)
GPGPU-Sim uArch: core:  5, cta: 1 initialized @(3,0)
GPGPU-Sim uArch: Shader 26 bind to kernel 1 '_Z17executeFirstLayerPfS_S_'
GPGPU-Sim uArch: core: 26, cta: 0 initialized @(3,0)
GPGPU-Sim uArch: core: 20, cta: 1 initialized @(3,0)
GPGPU-Sim uArch: core: 17, cta: 1 initialized @(3,0)
GPGPU-Sim uArch: core: 15, cta: 2 initialized @(3,0)
GPGPU-Sim uArch: core: 18, cta: 2 initialized @(4,0)
GPGPU-Sim uArch: core: 24, cta: 1 initialized @(4,0)
GPGPU-Sim uArch: core:  3, cta: 2 initialized @(4,0)
GPGPU-Sim uArch: core: 16, cta: 2 initialized @(4,0)
GPGPU-Sim uArch: core:  2, cta: 1 initialized @(4,0)
GPGPU-Sim uArch: core: 19, cta: 2 initialized @(4,0)
GPGPU-Sim uArch: core:  9, cta: 1 initialized @(4,0)
GPGPU-Sim uArch: core:  4, cta: 2 initialized @(4,0)
GPGPU-Sim uArch: core:  0, cta: 2 initialized @(4,0)
GPGPU-Sim uArch: core:  1, cta: 2 initialized @(4,0)
GPGPU-Sim uArch: core:  5, cta: 2 initialized @(5,0)
GPGPU-Sim uArch: core: 10, cta: 1 initialized @(5,0)
GPGPU-Sim uArch: core: 20, cta: 2 initialized @(5,0)
GPGPU-Sim uArch: core:  2, cta: 2 initialized @(5,0)
GPGPU-Sim uArch: core: 17, cta: 2 initialized @(5,0)
GPGPU-Sim uArch: Shader 6 bind to kernel 1 '_Z17executeFirstLayerPfS_S_'
GPGPU-Sim uArch: core:  6, cta: 0 initialized @(5,0)
GPGPU-Sim uArch: Shader 7 bind to kernel 1 '_Z17executeFirstLayerPfS_S_'
GPGPU-Sim uArch: core:  7, cta: 0 initialized @(5,0)
GPGPU-Sim uArch: core: 11, cta: 1 initialized @(6,0)
GPGPU-Sim uArch: Shader 21 bind to kernel 1 '_Z17executeFirstLayerPfS_S_'
GPGPU-Sim uArch: core: 21, cta: 0 initialized @(6,0)
GPGPU-Sim uArch: Shader 8 bind to kernel 1 '_Z17executeFirstLayerPfS_S_'
GPGPU-Sim uArch: core:  8, cta: 0 initialized @(6,0)
GPGPU-Sim uArch: core: 25, cta: 1 initialized @(6,0)
GPGPU-Sim uArch: Shader 22 bind to kernel 1 '_Z17executeFirstLayerPfS_S_'
GPGPU-Sim uArch: core: 22, cta: 0 initialized @(6,0)
GPGPU-Sim uArch: Shader 23 bind to kernel 1 '_Z17executeFirstLayerPfS_S_'
GPGPU-Sim uArch: core: 23, cta: 0 initialized @(6,0)
GPGPU-Sim uArch: core: 26, cta: 1 initialized @(7,0)
GPGPU-Sim uArch: core:  6, cta: 1 initialized @(7,0)
GPGPU-Sim uArch: core: 21, cta: 1 initialized @(7,0)
GPGPU-Sim uArch: core:  9, cta: 2 initialized @(7,0)
GPGPU-Sim uArch: core:  7, cta: 1 initialized @(7,0)
GPGPU-Sim uArch: core:  8, cta: 1 initialized @(7,0)
GPGPU-Sim uArch: core: 10, cta: 2 initialized @(8,0)
GPGPU-Sim uArch: core: 22, cta: 1 initialized @(8,0)
GPGPU-Sim uArch: core:  6, cta: 2 initialized @(8,0)
GPGPU-Sim uArch: core: 24, cta: 2 initialized @(8,0)
GPGPU-Sim uArch: core: 23, cta: 1 initialized @(8,0)
GPGPU-Sim uArch: core: 21, cta: 2 initialized @(8,0)
GPGPU-Sim uArch: core: 25, cta: 2 initialized @(9,0)
GPGPU-Sim uArch: core:  7, cta: 2 initialized @(9,0)
GPGPU-Sim uArch: core: 22, cta: 2 initialized @(9,0)
GPGPU-Sim uArch: core: 11, cta: 2 initialized @(9,0)
GPGPU-Sim uArch: core:  8, cta: 2 initialized @(9,0)
GPGPU-Sim uArch: Shader 12 bind to kernel 1 '_Z17executeFirstLayerPfS_S_'
GPGPU-Sim uArch: core: 12, cta: 0 initialized @(10,0)
GPGPU-Sim uArch: core: 23, cta: 2 initialized @(10,0)
GPGPU-Sim uArch: Shader 13 bind to kernel 1 '_Z17executeFirstLayerPfS_S_'
GPGPU-Sim uArch: core: 13, cta: 0 initialized @(10,0)
GPGPU-Sim uArch: Shader 14 bind to kernel 1 '_Z17executeFirstLayerPfS_S_'
GPGPU-Sim uArch: core: 14, cta: 0 initialized @(10,0)
GPGPU-Sim uArch: core: 26, cta: 2 initialized @(11,0)
GPGPU-Sim uArch: core: 12, cta: 1 initialized @(11,0)
GPGPU-Sim uArch: core: 13, cta: 1 initialized @(11,0)
GPGPU-Sim uArch: Shader 27 bind to kernel 1 '_Z17executeFirstLayerPfS_S_'
GPGPU-Sim uArch: core: 27, cta: 0 initialized @(12,0)
GPGPU-Sim uArch: Shader 28 bind to kernel 1 '_Z17executeFirstLayerPfS_S_'
GPGPU-Sim uArch: core: 28, cta: 0 initialized @(12,0)
GPGPU-Sim uArch: core: 14, cta: 1 initialized @(13,0)
GPGPU-Sim uArch: core: 12, cta: 2 initialized @(13,0)
GPGPU-Sim uArch: Shader 29 bind to kernel 1 '_Z17executeFirstLayerPfS_S_'
GPGPU-Sim uArch: core: 29, cta: 0 initialized @(14,0)
GPGPU-Sim uArch: core: 27, cta: 1 initialized @(14,0)
GPGPU-Sim uArch: core: 13, cta: 2 initialized @(15,0)
GPGPU-Sim uArch: core: 14, cta: 2 initialized @(15,0)
GPGPU-Sim uArch: core: 28, cta: 1 initialized @(16,0)
GPGPU-Sim uArch: core: 29, cta: 1 initialized @(16,0)
GPGPU-Sim uArch: core: 27, cta: 2 initialized @(17,0)
GPGPU-Sim uArch: core: 28, cta: 2 initialized @(18,0)
GPGPU-Sim uArch: core: 29, cta: 2 initialized @(19,0)
GPGPU-Sim PTX: 100000 instructions simulated : ctaid=(1,0,0) tid=(0,6,0)
GPGPU-Sim PTX: 200000 instructions simulated : ctaid=(4,4,0) tid=(1,0,0)
GPGPU-Sim uArch: cycles simulated: 500  inst.: 189653 (ipc=379.3) sim_rate=189653 (inst/sec) elapsed = 0:0:00:01 / Mon Nov 28 10:20:28 2011
GPGPU-Sim PTX: 300000 instructions simulated : ctaid=(4,5,0) tid=(9,9,0)
GPGPU-Sim PTX: 400000 instructions simulated : ctaid=(0,1,0) tid=(4,9,0)
GPGPU-Sim uArch: cycles simulated: 1000  inst.: 413059 (ipc=413.1) sim_rate=413059 (inst/sec) elapsed = 0:0:00:01 / Mon Nov 28 10:20:28 2011
GPGPU-Sim uArch: cycles simulated: 1500  inst.: 444916 (ipc=296.6) sim_rate=222458 (inst/sec) elapsed = 0:0:00:02 / Mon Nov 28 10:20:29 2011
GPGPU-Sim PTX: 500000 instructions simulated : ctaid=(0,0,0) tid=(1,2,0)
GPGPU-Sim uArch: cycles simulated: 2000  inst.: 511315 (ipc=255.7) sim_rate=255657 (inst/sec) elapsed = 0:0:00:02 / Mon Nov 28 10:20:29 2011
GPGPU-Sim uArch: cycles simulated: 2500  inst.: 573554 (ipc=229.4) sim_rate=286777 (inst/sec) elapsed = 0:0:00:02 / Mon Nov 28 10:20:29 2011
GPGPU-Sim PTX: 600000 instructions simulated : ctaid=(5,4,0) tid=(0,11,0)
GPGPU-Sim uArch: cycles simulated: 3000  inst.: 648510 (ipc=216.2) sim_rate=324255 (inst/sec) elapsed = 0:0:00:02 / Mon Nov 28 10:20:29 2011
GPGPU-Sim PTX: 700000 instructions simulated : ctaid=(2,0,0) tid=(0,1,0)
GPGPU-Sim uArch: cycles simulated: 3500  inst.: 707945 (ipc=202.3) sim_rate=353972 (inst/sec) elapsed = 0:0:00:02 / Mon Nov 28 10:20:29 2011
GPGPU-Sim uArch: cycles simulated: 4000  inst.: 769243 (ipc=192.3) sim_rate=384621 (inst/sec) elapsed = 0:0:00:02 / Mon Nov 28 10:20:29 2011
GPGPU-Sim PTX: 800000 instructions simulated : ctaid=(3,14,0) tid=(0,1,0)
GPGPU-Sim uArch: cycles simulated: 4500  inst.: 836919 (ipc=186.0) sim_rate=418459 (inst/sec) elapsed = 0:0:00:02 / Mon Nov 28 10:20:29 2011
GPGPU-Sim PTX: 900000 instructions simulated : ctaid=(2,0,0) tid=(6,7,0)
GPGPU-Sim uArch: cycles simulated: 5000  inst.: 908556 (ipc=181.7) sim_rate=302852 (inst/sec) elapsed = 0:0:00:03 / Mon Nov 28 10:20:30 2011
GPGPU-Sim uArch: cycles simulated: 5500  inst.: 970489 (ipc=176.5) sim_rate=323496 (inst/sec) elapsed = 0:0:00:03 / Mon Nov 28 10:20:30 2011
GPGPU-Sim PTX: 1000000 instructions simulated : ctaid=(0,4,0) tid=(3,1,0)
GPGPU-Sim uArch: cycles simulated: 6000  inst.: 1037264 (ipc=172.9) sim_rate=345754 (inst/sec) elapsed = 0:0:00:03 / Mon Nov 28 10:20:30 2011
GPGPU-Sim PTX: 1100000 instructions simulated : ctaid=(5,10,0) tid=(2,9,0)
GPGPU-Sim uArch: cycles simulated: 6500  inst.: 1101879 (ipc=169.5) sim_rate=367293 (inst/sec) elapsed = 0:0:00:03 / Mon Nov 28 10:20:30 2011
GPGPU-Sim uArch: cycles simulated: 7000  inst.: 1180664 (ipc=168.7) sim_rate=393554 (inst/sec) elapsed = 0:0:00:03 / Mon Nov 28 10:20:30 2011
GPGPU-Sim PTX: 1200000 instructions simulated : ctaid=(5,13,0) tid=(7,7,0)
GPGPU-Sim uArch: cycles simulated: 7500  inst.: 1241577 (ipc=165.5) sim_rate=413859 (inst/sec) elapsed = 0:0:00:03 / Mon Nov 28 10:20:30 2011
GPGPU-Sim PTX: 1300000 instructions simulated : ctaid=(0,12,0) tid=(12,1,0)
GPGPU-Sim uArch: cycles simulated: 8000  inst.: 1311849 (ipc=164.0) sim_rate=437283 (inst/sec) elapsed = 0:0:00:03 / Mon Nov 28 10:20:30 2011
GPGPU-Sim uArch: cycles simulated: 8500  inst.: 1380612 (ipc=162.4) sim_rate=345153 (inst/sec) elapsed = 0:0:00:04 / Mon Nov 28 10:20:31 2011
GPGPU-Sim PTX: 1400000 instructions simulated : ctaid=(3,0,0) tid=(10,2,0)
GPGPU-Sim uArch: cycles simulated: 9000  inst.: 1459079 (ipc=162.1) sim_rate=364769 (inst/sec) elapsed = 0:0:00:04 / Mon Nov 28 10:20:31 2011
GPGPU-Sim PTX: 1500000 instructions simulated : ctaid=(0,1,0) tid=(0,1,0)
GPGPU-Sim uArch: cycles simulated: 9500  inst.: 1518029 (ipc=159.8) sim_rate=379507 (inst/sec) elapsed = 0:0:00:04 / Mon Nov 28 10:20:31 2011
GPGPU-Sim PTX: 1600000 instructions simulated : ctaid=(2,9,0) tid=(7,0,0)
GPGPU-Sim uArch: cycles simulated: 10000  inst.: 1592158 (ipc=159.2) sim_rate=398039 (inst/sec) elapsed = 0:0:00:04 / Mon Nov 28 10:20:31 2011
GPGPU-Sim uArch: cycles simulated: 10500  inst.: 1657640 (ipc=157.9) sim_rate=414410 (inst/sec) elapsed = 0:0:00:04 / Mon Nov 28 10:20:31 2011
GPGPU-Sim PTX: 1700000 instructions simulated : ctaid=(4,10,0) tid=(11,9,0)
GPGPU-Sim uArch: cycles simulated: 11000  inst.: 1721293 (ipc=156.5) sim_rate=430323 (inst/sec) elapsed = 0:0:00:04 / Mon Nov 28 10:20:31 2011
GPGPU-Sim uArch: cycles simulated: 11500  inst.: 1785751 (ipc=155.3) sim_rate=446437 (inst/sec) elapsed = 0:0:00:04 / Mon Nov 28 10:20:31 2011
GPGPU-Sim PTX: 1800000 instructions simulated : ctaid=(0,1,0) tid=(12,5,0)
GPGPU-Sim uArch: cycles simulated: 12000  inst.: 1850620 (ipc=154.2) sim_rate=370124 (inst/sec) elapsed = 0:0:00:05 / Mon Nov 28 10:20:32 2011
GPGPU-Sim PTX: 1900000 instructions simulated : ctaid=(5,2,0) tid=(8,2,0)
GPGPU-Sim uArch: cycles simulated: 12500  inst.: 1928414 (ipc=154.3) sim_rate=385682 (inst/sec) elapsed = 0:0:00:05 / Mon Nov 28 10:20:32 2011
GPGPU-Sim PTX: 2000000 instructions simulated : ctaid=(5,12,0) tid=(7,9,0)
GPGPU-Sim uArch: cycles simulated: 13000  inst.: 1994310 (ipc=153.4) sim_rate=398862 (inst/sec) elapsed = 0:0:00:05 / Mon Nov 28 10:20:32 2011
GPGPU-Sim uArch: cycles simulated: 13500  inst.: 2074608 (ipc=153.7) sim_rate=414921 (inst/sec) elapsed = 0:0:00:05 / Mon Nov 28 10:20:32 2011
GPGPU-Sim PTX: 2100000 instructions simulated : ctaid=(1,0,0) tid=(5,0,0)
GPGPU-Sim uArch: cycles simulated: 14000  inst.: 2135605 (ipc=152.5) sim_rate=427121 (inst/sec) elapsed = 0:0:00:05 / Mon Nov 28 10:20:32 2011
GPGPU-Sim PTX: 2200000 instructions simulated : ctaid=(4,14,0) tid=(4,11,0)
GPGPU-Sim uArch: cycles simulated: 14500  inst.: 2205433 (ipc=152.1) sim_rate=441086 (inst/sec) elapsed = 0:0:00:05 / Mon Nov 28 10:20:32 2011
GPGPU-Sim uArch: cycles simulated: 15000  inst.: 2287617 (ipc=152.5) sim_rate=457523 (inst/sec) elapsed = 0:0:00:05 / Mon Nov 28 10:20:32 2011
GPGPU-Sim PTX: 2300000 instructions simulated : ctaid=(4,14,0) tid=(9,3,0)
GPGPU-Sim uArch: cycles simulated: 15500  inst.: 2363434 (ipc=152.5) sim_rate=393905 (inst/sec) elapsed = 0:0:00:06 / Mon Nov 28 10:20:33 2011
GPGPU-Sim PTX: 2400000 instructions simulated : ctaid=(0,9,0) tid=(2,9,0)
GPGPU-Sim uArch: cycles simulated: 16000  inst.: 2429391 (ipc=151.8) sim_rate=404898 (inst/sec) elapsed = 0:0:00:06 / Mon Nov 28 10:20:33 2011
GPGPU-Sim PTX: 2500000 instructions simulated : ctaid=(1,2,0) tid=(5,9,0)
GPGPU-Sim uArch: cycles simulated: 16500  inst.: 2495532 (ipc=151.2) sim_rate=415922 (inst/sec) elapsed = 0:0:00:06 / Mon Nov 28 10:20:33 2011
GPGPU-Sim uArch: cycles simulated: 17000  inst.: 2562828 (ipc=150.8) sim_rate=427138 (inst/sec) elapsed = 0:0:00:06 / Mon Nov 28 10:20:33 2011
GPGPU-Sim PTX: 2600000 instructions simulated : ctaid=(2,6,0) tid=(2,1,0)
GPGPU-Sim uArch: cycles simulated: 17500  inst.: 2633133 (ipc=150.5) sim_rate=438855 (inst/sec) elapsed = 0:0:00:06 / Mon Nov 28 10:20:33 2011
GPGPU-Sim PTX: 2700000 instructions simulated : ctaid=(5,13,0) tid=(6,10,0)
GPGPU-Sim uArch: cycles simulated: 18000  inst.: 2710111 (ipc=150.6) sim_rate=451685 (inst/sec) elapsed = 0:0:00:06 / Mon Nov 28 10:20:33 2011
GPGPU-Sim uArch: cycles simulated: 18500  inst.: 2781739 (ipc=150.4) sim_rate=397391 (inst/sec) elapsed = 0:0:00:07 / Mon Nov 28 10:20:34 2011
GPGPU-Sim PTX: 2800000 instructions simulated : ctaid=(1,2,0) tid=(5,8,0)
GPGPU-Sim uArch: cycles simulated: 19000  inst.: 2854843 (ipc=150.3) sim_rate=407834 (inst/sec) elapsed = 0:0:00:07 / Mon Nov 28 10:20:34 2011
GPGPU-Sim PTX: 2900000 instructions simulated : ctaid=(2,7,0) tid=(12,6,0)
GPGPU-Sim uArch: cycles simulated: 19500  inst.: 2925091 (ipc=150.0) sim_rate=417870 (inst/sec) elapsed = 0:0:00:07 / Mon Nov 28 10:20:34 2011
GPGPU-Sim PTX: 3000000 instructions simulated : ctaid=(5,3,0) tid=(11,7,0)
GPGPU-Sim uArch: cycles simulated: 20000  inst.: 2995654 (ipc=149.8) sim_rate=427950 (inst/sec) elapsed = 0:0:00:07 / Mon Nov 28 10:20:34 2011
GPGPU-Sim uArch: cycles simulated: 20500  inst.: 3064555 (ipc=149.5) sim_rate=437793 (inst/sec) elapsed = 0:0:00:07 / Mon Nov 28 10:20:34 2011
GPGPU-Sim PTX: 3100000 instructions simulated : ctaid=(2,2,0) tid=(1,11,0)