

        *** GPGPU-Sim version 3.0.1 (build 11015) ***


GPGPU-Sim PTX: simulation mode 0 (can change with PTX_SIM_MODE_FUNC environment variable:
               1=functional simulation only, 0=detailed performance simulator)
GPGPU-Sim: Configuration options:

-network_mode                           1 # Interconnection network mode
-inter_config_file   icnt_config_quadro_islip.txt # Interconnection network config file
-gpgpu_ptx_convert_to_ptxplus                    0 # Convert embedded ptx to ptxplus
-gpgpu_ptx_save_converted_ptxplus                    0 # Saved converted ptxplus to a file
-gpgpu_ptx_force_max_capability                   12 # Force maximum compute capability
-gpgpu_ptx_inst_debug_to_file                    0 # Dump executed instructions' debug information to file
-gpgpu_ptx_inst_debug_file       inst_debug.txt # Executed instructions' debug output file
-gpgpu_ptx_inst_debug_thread_uid                    1 # Thread UID for executed instructions' debug output
-gpgpu_simd_model                       1 # 1 = post-dominator
-gpgpu_shader_core_pipeline              1024:32 # shader core pipeline config, i.e., {<nthread>:<warpsize>}
-gpgpu_tex_cache:l1  8:128:5:L:R:m,F:128:4,128:2 # per-shader L1 texture cache  (READ-ONLY) config  {<nsets>:<bsize>:<assoc>:<rep>:<wr>:<alloc>,<mshr>:<N>:<merge>,<mq>:<rf>}
-gpgpu_const_cache:l1 64:64:2:L:R:f,A:2:32,4 # per-shader L1 constant memory cache  (READ-ONLY) config  {<nsets>:<bsize>:<assoc>:<rep>:<wr>:<alloc>,<mshr>:<N>:<merge>,<mq>}
-gpgpu_cache:il1     4:256:4:L:R:f,A:2:32,4 # shader L1 instruction cache config  {<nsets>:<bsize>:<assoc>:<rep>:<wr>:<alloc>,<mshr>:<N>:<merge>,<mq>}
-gpgpu_cache:dl1                     none # per-shader L1 data cache config  {<nsets>:<bsize>:<assoc>:<rep>:<wr>:<alloc>,<mshr>:<N>:<merge>,<mq>|none}
-gpgpu_perfect_mem                      0 # enable perfect memory mode (no cache miss)
-gpgpu_shader_registers                16384 # Number of registers per shader core. Limits number of concurrent CTAs. (default 8192)
-gpgpu_shader_cta                       8 # Maximum number of concurrent CTAs in shader (default 8)
-gpgpu_n_clusters                      10 # number of processing clusters
-gpgpu_n_cores_per_cluster                    3 # number of simd cores per cluster
-gpgpu_n_cluster_ejection_buffer_size                    8 # number of packets in ejection buffer
-gpgpu_n_ldst_response_buffer_size                    2 # number of response packets in ld/st unit ejection buffer
-gpgpu_shmem_size                   16384 # Size of shared memory per shader core (default 16kB)
-gpgpu_shmem_warp_parts                    2 # Number of portions a warp is divided into for shared memory bank conflict check 
-gpgpu_warpdistro_shader                   -1 # Specify which shader core to collect the warp size distribution from
-gpgpu_local_mem_map                    1 # Mapping from local memory space address to simulated GPU physical address space (default = enabled)
-gpgpu_num_reg_banks                    8 # Number of register banks (default = 8)
-gpgpu_reg_bank_use_warp_id                    0 # Use warp ID in mapping registers to banks (default = off)
-gpgpu_operand_collector_num_units_sp                    6 # number of collector units (default = 4)
-gpgpu_operand_collector_num_units_sfu                    8 # number of collector units (default = 4)
-gpgpu_operand_collector_num_units_mem                    2 # number of collector units (default = 2)
-gpgpu_operand_collector_num_units_gen                    0 # number of collector units (default = 0)
-gpgpu_operand_collector_num_in_ports_sp                    1 # number of collector unit in ports (default = 1)
-gpgpu_operand_collector_num_in_ports_sfu                    1 # number of collector unit in ports (default = 1)
-gpgpu_operand_collector_num_in_ports_mem                    1 # number of collector unit in ports (default = 1)
-gpgpu_operand_collector_num_in_ports_gen                    0 # number of collector unit in ports (default = 0)
-gpgpu_operand_collector_num_out_ports_sp                    1 # number of collector unit in ports (default = 1)
-gpgpu_operand_collector_num_out_ports_sfu                    1 # number of collector unit in ports (default = 1)
-gpgpu_operand_collector_num_out_ports_mem                    1 # number of collector unit in ports (default = 1)
-gpgpu_operand_collector_num_out_ports_gen                    0 # number of collector unit in ports (default = 0)
-gpgpu_coalesce_arch                   13 # Coalescing arch (default = 13, anything else is off for now)
-gpgpu_num_sched_per_core                    1 # Number of warp schedulers per core
-gpgpu_max_insn_issue_per_warp                    2 # Max number of instructions that can be issued per warp in one cycle by scheduler
-gpgpu_dram_scheduler                    1 # 0 = fifo, 1 = FR-FCFS (defaul)
-gpgpu_dram_partition_queues              8:8:8:8 # i2$:$2d:d2$:$2i
-l2_ideal                               0 # Use a ideal L2 cache that always hit
-gpgpu_cache:dl2     64:32:8:L:R:m,A:16:4,4 # unified banked L2 data cache config  {<nsets>:<bsize>:<assoc>:<rep>:<wr>:<alloc>,<mshr>:<N>:<merge>,<mq>}
-gpgpu_cache:dl2_texture_only                    0 # L2 cache used for texture only
-gpgpu_n_mem                            8 # number of memory modules (e.g. memory controllers) in gpu
-gpgpu_n_mem_per_ctrlr                    2 # number of memory chips per memory controller
-gpgpu_memlatency_stat                   14 # track and display latency statistics 0x2 enables MC, 0x4 enables queue logs
-gpgpu_dram_sched_queue_size                   16 # 0 = unlimited (default); # entries per chip
-gpgpu_dram_buswidth                    4 # default = 4 bytes (8 bytes per cycle at DDR)
-gpgpu_dram_burst_length                    4 # Burst length of each DRAM request (default = 4 DDR cycle)
-gpgpu_dram_timing_opt 8:2:8:12:25:10:35:10:7:6:11 # DRAM timing parameters = {nbk:tCCD:tRRD:tRCD:tRAS:tRP:tRC:CL:WL:tCDLR:tWR}
-gpgpu_mem_addr_mapping dramid@8;00000000.00000000.00000000.00000000.0000RRRR.RRRRRRRR.RRBBBCCC.CCCSSSSS # mapping memory address to dram model {dramid@<start bit>;<memory address map>}
-gpgpu_mem_address_mask                    1 # 0 = old addressing mask, 1 = new addressing mask, 2 = new add. mask + flipped bank sel and chip sel bits
-gpgpu_max_cycle                        0 # terminates gpu simulation early (0 = no limit)
-gpgpu_max_insn                         0 # terminates gpu simulation early (0 = no limit)
-gpgpu_max_cta                          0 # terminates gpu simulation early (0 = no limit)
-gpgpu_runtime_stat                   500 # display runtime statistics such as dram utilization {<freq>:<flag>}
-gpgpu_flush_cache                      0 # Flush cache at the end of each kernel call
-gpgpu_deadlock_detect                    1 # Stop the simulation at deadlock (1=on (default), 0=off)
-gpgpu_ptx_instruction_classification                    0 # if enabled will classify ptx instruction types per kernel (Max 255 kernels now)
-gpgpu_ptx_sim_mode                     0 # Select between Performance (default) or Functional simulation (1)
-gpgpu_clock_domains 325.0:650.0:650.0:800.0 # Clock Domain Frequencies in MhZ {<Core Clock>:<ICNT Clock>:<L2 Clock>:<DRAM Clock>}
-gpgpu_max_concurrent_kernel                    8 # maximum kernels that can run concurrently on GPU
-gpgpu_cflog_interval                    0 # Interval between each snapshot in control flow logger
-visualizer_enabled                     0 # Turn on visualizer output (1=On, 0=Off)
-visualizer_outputfile                 NULL # Specifies the output log file for visualizer
-visualizer_zlevel                      6 # Compression level of the visualizer output log (0=no comp, 9=highest)
-enable_ptx_file_line_stats                    1 # Turn on PTX source line statistic profiling. (1 = On)
-ptx_line_stats_filename gpgpu_inst_stats.txt # Output file for PTX source line statistics.
-save_embedded_ptx                      0 # saves ptx files embedded in binary as <n>.ptx
-keep                                   0 # keep intermediate files created by GPGPU-Sim when interfacing with external programs
addr_dec_mask[CHIP]  = 0000000000000700 	high:11 low:8
addr_dec_mask[BK]    = 000000000001c000 	high:17 low:14
addr_dec_mask[ROW]   = 000000007ffe0000 	high:31 low:17
addr_dec_mask[COL]   = 00000000000038ff 	high:14 low:0
addr_dec_mask[BURST] = 000000000000001f 	high:5 low:0
GPGPU-Sim uArch: clock freqs: 325000000.000000:650000000.000000:650000000.000000:800000000.000000
GPGPU-Sim uArch: clock periods: 0.00000000307692307692:0.00000000153846153846:0.00000000153846153846:0.00000000125000000000
*** Initializing Memory Statistics ***
GPGPU-Sim uArch: interconnect nodemap
GPGPU-Sim uArch:   0 
GPGPU-Sim uArch:   1   2   3   4 
GPGPU-Sim uArch:   5   6   7   8 
GPGPU-Sim uArch:   9  10  11  12 
GPGPU-Sim uArch:  13  14  15  16 
GPGPU-Sim uArch:  17 GPGPU-Sim uArch: performance model initialization complete.
GPGPU-Sim PTX: __cudaRegisterFatBinary found PTX versions for 'rayTracing.cu', capability = compute_10
GPGPU-Sim PTX: Loading PTX for rayTracing.cu, capability = compute_10
GPGPU-Sim PTX: allocating constant region for "MView" from 0x100 to 0x130 (global memory space) 1
GPGPU-Sim PTX: allocating constant region for "cnode" from 0x150 to 0x1f0 (global memory space) 2
GPGPU-Sim PTX: allocating stack frame region for .local "__cuda___cuda_local_var_25220_9_pile_16240" from 0x0 to 0x50
GPGPU-Sim PTX: instruction assembly for function '_Z6renderPjP4Nodejjff'...   done.
GPGPU-Sim PTX: finding reconvergence points for '_Z6renderPjP4Nodejjff'...
GPGPU-Sim PTX: Finding dominators for '_Z6renderPjP4Nodejjff'...
GPGPU-Sim PTX: Finding immediate dominators for '_Z6renderPjP4Nodejjff'...
GPGPU-Sim PTX: Finding postdominators for '_Z6renderPjP4Nodejjff'...
GPGPU-Sim PTX: Finding immediate postdominators for '_Z6renderPjP4Nodejjff'...
GPGPU-Sim PTX: pre-decoding instructions for '_Z6renderPjP4Nodejjff'... GPGPU-Sim PTX: Reconvergence Pairs for _Z6renderPjP4Nodejjff
GPGPU-Sim PTX:   branch pc = 472	target pc = 6048
GPGPU-Sim PTX:   branch pc = 1088	target pc = 1528
GPGPU-Sim PTX:   branch pc = 1120	target pc = 1200
GPGPU-Sim PTX:   branch pc = 1136	target pc = 1200
GPGPU-Sim PTX:   branch pc = 1208	target pc = 1528
GPGPU-Sim PTX:   branch pc = 1408	target pc = 1520
GPGPU-Sim PTX:   branch pc = 1424	target pc = 1520
GPGPU-Sim PTX:   branch pc = 1456	target pc = 1520
GPGPU-Sim PTX:   branch pc = 1472	target pc = 1520
GPGPU-Sim PTX:   branch pc = 1592	target pc = 1616
GPGPU-Sim PTX:   branch pc = 1648	target pc = 1656
GPGPU-Sim PTX:   branch pc = 1728	target pc = 5488
GPGPU-Sim PTX:   branch pc = 1848	target pc = 2008
GPGPU-Sim PTX:   branch pc = 1880	target pc = 2008
GPGPU-Sim PTX:   branch pc = 2128	target pc = 2192
GPGPU-Sim PTX:   branch pc = 2160	target pc = 2192
GPGPU-Sim PTX:   branch pc = 2488	target pc = 5296
GPGPU-Sim PTX:   branch pc = 2544	target pc = 3072
GPGPU-Sim PTX:   branch pc = 2576	target pc = 2672
GPGPU-Sim PTX:   branch pc = 2592	target pc = 2672
GPGPU-Sim PTX:   branch pc = 2680	target pc = 3072
GPGPU-Sim PTX:   branch pc = 2952	target pc = 3064
GPGPU-Sim PTX:   branch pc = 2968	target pc = 3064
GPGPU-Sim PTX:   branch pc = 3000	target pc = 3064
GPGPU-Sim PTX:   branch pc = 3016	target pc = 3064
GPGPU-Sim PTX:   branch pc = 3088	target pc = 3192
GPGPU-Sim PTX:   branch pc = 3176	target pc = 3192
GPGPU-Sim PTX:   branch pc = 3224	target pc = 3280
GPGPU-Sim PTX:   branch pc = 3248	target pc = 3280
GPGPU-Sim PTX:   branch pc = 3256	target pc = 3280
GPGPU-Sim PTX:   branch pc = 3280	target pc = 5296
GPGPU-Sim PTX:   branch pc = 3608	target pc = 5232
GPGPU-Sim PTX:   branch pc = 3624	target pc = 5232
GPGPU-Sim PTX:   branch pc = 3656	target pc = 5232
GPGPU-Sim PTX:   branch pc = 3664	target pc = 3696
GPGPU-Sim PTX:   branch pc = 3688	target pc = 5232
GPGPU-Sim PTX:   branch pc = 3712	target pc = 5232
GPGPU-Sim PTX:   branch pc = 3728	target pc = 5232
GPGPU-Sim PTX:   branch pc = 3752	target pc = 5232
GPGPU-Sim PTX:   branch pc = 3848	target pc = 5232
GPGPU-Sim PTX:   branch pc = 3872	target pc = 5232
GPGPU-Sim PTX:   branch pc = 3952	target pc = 3984
GPGPU-Sim PTX:   branch pc = 3992	target pc = 5232
GPGPU-Sim PTX:   branch pc = 4016	target pc = 5232
GPGPU-Sim PTX:   branch pc = 4056	target pc = 5232
GPGPU-Sim PTX:   branch pc = 4080	target pc = 5232
GPGPU-Sim PTX:   branch pc = 4168	target pc = 4200
GPGPU-Sim PTX:   branch pc = 4840	target pc = 4880
GPGPU-Sim PTX:   branch pc = 5064	target pc = 5080
GPGPU-Sim PTX:   branch pc = 5192	target pc = 5224
GPGPU-Sim PTX:   branch pc = 5512	target pc = 5536
GPGPU-Sim PTX:   branch pc = 5528	target pc = 5536
GPGPU-Sim PTX:   branch pc = 5568	target pc = 5816
GPGPU-Sim PTX:   branch pc = 5808	target pc = 5816
  done.
GPGPU-Sim PTX: finished parsing EMBEDDED .ptx file _1.ptx
GPGPU-Sim PTX: extracting embedded .ptx to temporary file "_ptx_zQd76a"
GPGPU-Sim PTX: generating ptxinfo using "ptxas --gpu-name=sm_20 -v _ptx2_iZmr57 --output-file /dev/null 2> _ptx_zQd76ainfo"
GPGPU-Sim PTX: Kernel '_Z6renderPjP4Nodejjff' : regs=44, lmem=4, smem=0, cmem=320
GPGPU-Sim PTX: removing ptxinfo using "rm -f _ptx_zQd76a _ptx2_iZmr57 _ptx_zQd76ainfo"
GPGPU-Sim PTX: loading globals with explicit initializers... 
GPGPU-Sim PTX: finished loading globals (0 bytes total).
GPGPU-Sim PTX: loading constants with explicit initializers...  done.
GPGPU-Sim PTX: __cudaRegisterFunction _Z6renderPjP4Nodejjff : hostFun 0x0x406ad0, fat_cubin_handle = 1
GPGPU-Sim PTX: __cudaRegisterVar: hostVar = 0x630080; deviceAddress = MView; deviceName = MView
GPGPU-Sim PTX: __cudaRegisterVar: Registering const memory space of 48 bytes
GPGPU-Sim PTX registering constant MView (48 bytes) to name mapping
GPGPU-Sim PTX: __cudaRegisterVar: hostVar = 0x6300c0; deviceAddress = cnode; deviceName = cnode
GPGPU-Sim PTX: __cudaRegisterVar: Registering const memory space of 160 bytes
GPGPU-Sim PTX registering constant cnode (160 bytes) to name mapping
GPGPU-Sim PTX: cudaMemcpyToSymbol: symbol = 0x6300c0
GPGPU-Sim PTX: starting gpgpu_ptx_sim_memcpy_symbol with hostVar 0x0x6300c0
GPGPU-Sim PTX: gpgpu_ptx_sim_memcpy_symbol: Found PTX symbol w/ hostVar=0x6300c0
GPGPU-Sim PTX: gpgpu_ptx_sim_memcpy_symbol: copying 160 bytes  to  symbol cnode+0 @0x1e0 ...
GPGPU-Sim PTX: cudaMemcpyToSymbol: symbol = 0x630080
GPGPU-Sim PTX: starting gpgpu_ptx_sim_memcpy_symbol with hostVar 0x0x630080
GPGPU-Sim PTX: gpgpu_ptx_sim_memcpy_symbol: Found PTX symbol w/ hostVar=0x630080
GPGPU-Sim PTX: gpgpu_ptx_sim_memcpy_symbol: copying 48 bytes  to  symbol MView+0 @0x120 ...

GPGPU-Sim PTX: cudaLaunch for 0x0x406ad0 (mode=performance simulation) on stream 0
GPGPU-Sim PTX: pushing kernel '_Z6renderPjP4Nodejjff' to stream 0, gridDim= (50,75,1) blockDim = (16,8,1) 
kernel '_Z6renderPjP4Nodejjff' transfer to GPU hardware scheduler
GPGPU-Sim uArch: Shader 3 bind to kernel 1 '_Z6renderPjP4Nodejjff'
GPGPU-Sim uArch: CTA/core = 2, limited by: regs
GPGPU-Sim uArch: core:  3, cta: 0 initialized @(1,0)
GPGPU-Sim uArch: Shader 9 bind to kernel 1 '_Z6renderPjP4Nodejjff'
GPGPU-Sim uArch: core:  9, cta: 0 initialized @(1,0)
GPGPU-Sim uArch: Shader 18 bind to kernel 1 '_Z6renderPjP4Nodejjff'
GPGPU-Sim uArch: core: 18, cta: 0 initialized @(1,0)
GPGPU-Sim uArch: Shader 0 bind to kernel 1 '_Z6renderPjP4Nodejjff'
GPGPU-Sim uArch: core:  0, cta: 0 initialized @(1,0)
GPGPU-Sim uArch: Shader 15 bind to kernel 1 '_Z6renderPjP4Nodejjff'
GPGPU-Sim uArch: core: 15, cta: 0 initialized @(1,0)
GPGPU-Sim uArch: Shader 4 bind to kernel 1 '_Z6renderPjP4Nodejjff'
GPGPU-Sim uArch: core:  4, cta: 0 initialized @(1,0)
GPGPU-Sim uArch: Shader 24 bind to kernel 1 '_Z6renderPjP4Nodejjff'
GPGPU-Sim uArch: core: 24, cta: 0 initialized @(1,0)
GPGPU-Sim uArch: Shader 19 bind to kernel 1 '_Z6renderPjP4Nodejjff'
GPGPU-Sim uArch: core: 19, cta: 0 initialized @(1,0)
GPGPU-Sim uArch: Shader 16 bind to kernel 1 '_Z6renderPjP4Nodejjff'
GPGPU-Sim uArch: core: 16, cta: 0 initialized @(1,0)
GPGPU-Sim uArch: Shader 17 bind to kernel 1 '_Z6renderPjP4Nodejjff'
GPGPU-Sim uArch: core: 17, cta: 0 initialized @(1,0)
GPGPU-Sim uArch: Shader 20 bind to kernel 1 '_Z6renderPjP4Nodejjff'
GPGPU-Sim uArch: core: 20, cta: 0 initialized @(2,0)
GPGPU-Sim uArch: Shader 25 bind to kernel 1 '_Z6renderPjP4Nodejjff'
GPGPU-Sim uArch: core: 25, cta: 0 initialized @(2,0)
GPGPU-Sim uArch: Shader 5 bind to kernel 1 '_Z6renderPjP4Nodejjff'
GPGPU-Sim uArch: core:  5, cta: 0 initialized @(2,0)
GPGPU-Sim uArch: core: 15, cta: 1 initialized @(2,0)
GPGPU-Sim uArch: Shader 1 bind to kernel 1 '_Z6renderPjP4Nodejjff'
GPGPU-Sim uArch: core:  1, cta: 0 initialized @(2,0)
GPGPU-Sim uArch: core: 18, cta: 1 initialized @(2,0)
GPGPU-Sim uArch: Shader 10 bind to kernel 1 '_Z6renderPjP4Nodejjff'
GPGPU-Sim uArch: core: 10, cta: 0 initialized @(2,0)
GPGPU-Sim uArch: core:  3, cta: 1 initialized @(2,0)
GPGPU-Sim uArch: Shader 2 bind to kernel 1 '_Z6renderPjP4Nodejjff'
GPGPU-Sim uArch: core:  2, cta: 0 initialized @(2,0)
GPGPU-Sim uArch: core:  0, cta: 1 initialized @(2,0)
GPGPU-Sim uArch: core:  4, cta: 1 initialized @(3,0)
GPGPU-Sim uArch: Shader 11 bind to kernel 1 '_Z6renderPjP4Nodejjff'
GPGPU-Sim uArch: core: 11, cta: 0 initialized @(3,0)
GPGPU-Sim uArch: core: 19, cta: 1 initialized @(3,0)
GPGPU-Sim uArch: core:  1, cta: 1 initialized @(3,0)
GPGPU-Sim uArch: core: 16, cta: 1 initialized @(3,0)
GPGPU-Sim uArch: core:  5, cta: 1 initialized @(3,0)
GPGPU-Sim uArch: Shader 26 bind to kernel 1 '_Z6renderPjP4Nodejjff'
GPGPU-Sim uArch: core: 26, cta: 0 initialized @(3,0)
GPGPU-Sim uArch: core: 20, cta: 1 initialized @(3,0)
GPGPU-Sim uArch: core: 17, cta: 1 initialized @(3,0)
GPGPU-Sim uArch: Shader 21 bind to kernel 1 '_Z6renderPjP4Nodejjff'
GPGPU-Sim uArch: core: 21, cta: 0 initialized @(4,0)
GPGPU-Sim uArch: core:  2, cta: 1 initialized @(4,0)
GPGPU-Sim uArch: Shader 12 bind to kernel 1 '_Z6renderPjP4Nodejjff'
GPGPU-Sim uArch: core: 12, cta: 0 initialized @(4,0)
GPGPU-Sim uArch: Shader 27 bind to kernel 1 '_Z6renderPjP4Nodejjff'
GPGPU-Sim uArch: core: 27, cta: 0 initialized @(4,0)
GPGPU-Sim uArch: Shader 22 bind to kernel 1 '_Z6renderPjP4Nodejjff'
GPGPU-Sim uArch: core: 22, cta: 0 initialized @(4,0)
GPGPU-Sim uArch: Shader 23 bind to kernel 1 '_Z6renderPjP4Nodejjff'
GPGPU-Sim uArch: core: 23, cta: 0 initialized @(4,0)
GPGPU-Sim uArch: core: 24, cta: 1 initialized @(5,0)
GPGPU-Sim uArch: Shader 6 bind to kernel 1 '_Z6renderPjP4Nodejjff'
GPGPU-Sim uArch: core:  6, cta: 0 initialized @(5,0)
GPGPU-Sim uArch: core: 21, cta: 1 initialized @(5,0)
GPGPU-Sim uArch: core:  9, cta: 1 initialized @(5,0)
GPGPU-Sim uArch: Shader 7 bind to kernel 1 '_Z6renderPjP4Nodejjff'
GPGPU-Sim uArch: core:  7, cta: 0 initialized @(5,0)
GPGPU-Sim uArch: Shader 8 bind to kernel 1 '_Z6renderPjP4Nodejjff'
GPGPU-Sim uArch: core:  8, cta: 0 initialized @(5,0)
GPGPU-Sim uArch: core: 10, cta: 1 initialized @(6,0)
GPGPU-Sim uArch: core: 22, cta: 1 initialized @(6,0)
GPGPU-Sim uArch: core:  6, cta: 1 initialized @(6,0)
GPGPU-Sim uArch: core: 25, cta: 1 initialized @(6,0)
GPGPU-Sim uArch: core: 23, cta: 1 initialized @(6,0)
GPGPU-Sim uArch: core: 26, cta: 1 initialized @(7,0)
GPGPU-Sim uArch: core:  7, cta: 1 initialized @(7,0)
GPGPU-Sim uArch: Shader 28 bind to kernel 1 '_Z6renderPjP4Nodejjff'
GPGPU-Sim uArch: core: 28, cta: 0 initialized @(7,0)
GPGPU-Sim uArch: Shader 29 bind to kernel 1 '_Z6renderPjP4Nodejjff'
GPGPU-Sim uArch: core: 29, cta: 0 initialized @(7,0)
GPGPU-Sim uArch: core:  8, cta: 1 initialized @(8,0)
GPGPU-Sim uArch: core: 27, cta: 1 initialized @(8,0)
GPGPU-Sim uArch: core: 28, cta: 1 initialized @(8,0)
GPGPU-Sim uArch: core: 11, cta: 1 initialized @(9,0)
GPGPU-Sim uArch: core: 29, cta: 1 initialized @(9,0)
GPGPU-Sim uArch: Shader 13 bind to kernel 1 '_Z6renderPjP4Nodejjff'
GPGPU-Sim uArch: core: 13, cta: 0 initialized @(10,0)
GPGPU-Sim uArch: Shader 14 bind to kernel 1 '_Z6renderPjP4Nodejjff'
GPGPU-Sim uArch: core: 14, cta: 0 initialized @(10,0)
GPGPU-Sim uArch: core: 12, cta: 1 initialized @(11,0)
GPGPU-Sim uArch: core: 13, cta: 1 initialized @(12,0)
GPGPU-Sim uArch: core: 14, cta: 1 initialized @(13,0)
GPGPU-Sim uArch: cycles simulated: 500  inst.: 49440 (ipc=98.9) sim_rate=49440 (inst/sec) elapsed = 0:0:00:01 / Mon Nov 28 10:12:03 2011
GPGPU-Sim PTX: 100000 instructions simulated : ctaid=(22,0,0) tid=(15,7,0)
GPGPU-Sim uArch: cycles simulated: 1000  inst.: 98400 (ipc=98.4) sim_rate=98400 (inst/sec) elapsed = 0:0:00:01 / Mon Nov 28 10:12:03 2011
GPGPU-Sim PTX: 200000 instructions simulated : ctaid=(48,0,0) tid=(15,5,0)
GPGPU-Sim uArch: cycles simulated: 1500  inst.: 213536 (ipc=142.4) sim_rate=213536 (inst/sec) elapsed = 0:0:00:01 / Mon Nov 28 10:12:03 2011
GPGPU-Sim PTX: 300000 instructions simulated : ctaid=(44,0,0) tid=(15,1,0)
GPGPU-Sim uArch: cycles simulated: 2000  inst.: 350560 (ipc=175.3) sim_rate=350560 (inst/sec) elapsed = 0:0:00:01 / Mon Nov 28 10:12:03 2011
GPGPU-Sim PTX: 400000 instructions simulated : ctaid=(10,0,0) tid=(15,1,0)
GPGPU-Sim PTX: 500000 instructions simulated : ctaid=(26,0,0) tid=(15,1,0)
GPGPU-Sim uArch: cycles simulated: 2500  inst.: 524320 (ipc=209.7) sim_rate=262160 (inst/sec) elapsed = 0:0:00:02 / Mon Nov 28 10:12:04 2011
GPGPU-Sim PTX: 600000 instructions simulated : ctaid=(28,0,0) tid=(15,7,0)
GPGPU-Sim PTX: 700000 instructions simulated : ctaid=(1,1,0) tid=(15,1,0)
GPGPU-Sim uArch: cycles simulated: 3000  inst.: 730496 (ipc=243.5) sim_rate=365248 (inst/sec) elapsed = 0:0:00:02 / Mon Nov 28 10:12:04 2011
GPGPU-Sim PTX: 800000 instructions simulated : ctaid=(20,0,0) tid=(15,3,0)
GPGPU-Sim PTX: 900000 instructions simulated : ctaid=(37,0,0) tid=(15,3,0)
GPGPU-Sim uArch: cycles simulated: 3500  inst.: 963808 (ipc=275.4) sim_rate=481904 (inst/sec) elapsed = 0:0:00:02 / Mon Nov 28 10:12:04 2011
GPGPU-Sim PTX: 1000000 instructions simulated : ctaid=(44,0,0) tid=(15,1,0)
GPGPU-Sim PTX: 1100000 instructions simulated : ctaid=(17,0,0) tid=(15,3,0)
GPGPU-Sim PTX: 1200000 instructions simulated : ctaid=(44,0,0) tid=(15,3,0)
GPGPU-Sim uArch: cycles simulated: 4000  inst.: 1271936 (ipc=318.0) sim_rate=635968 (inst/sec) elapsed = 0:0:00:02 / Mon Nov 28 10:12:04 2011
GPGPU-Sim PTX: 1300000 instructions simulated : ctaid=(2,0,0) tid=(15,7,0)
GPGPU-Sim PTX: 1400000 instructions simulated : ctaid=(14,0,0) tid=(15,1,0)
GPGPU-Sim PTX: 1500000 instructions simulated : ctaid=(3,0,0) tid=(15,3,0)
GPGPU-Sim PTX: 1600000 instructions simulated : ctaid=(24,0,0) tid=(15,7,0)
GPGPU-Sim uArch: cycles simulated: 4500  inst.: 1621792 (ipc=360.4) sim_rate=540597 (inst/sec) elapsed = 0:0:00:03 / Mon Nov 28 10:12:05 2011
GPGPU-Sim PTX: 1700000 instructions simulated : ctaid=(3,0,0) tid=(15,3,0)
GPGPU-Sim PTX: 1800000 instructions simulated : ctaid=(38,0,0) tid=(15,1,0)
GPGPU-Sim PTX: 1900000 instructions simulated : ctaid=(2,1,0) tid=(15,7,0)
GPGPU-Sim PTX: 2000000 instructions simulated : ctaid=(6,0,0) tid=(15,3,0)
GPGPU-Sim uArch: cycles simulated: 5000  inst.: 1953024 (ipc=390.6) sim_rate=651008 (inst/sec) elapsed = 0:0:00:03 / Mon Nov 28 10:12:05 2011
GPGPU-Sim PTX: 2100000 instructions simulated : ctaid=(48,0,0) tid=(15,3,0)
GPGPU-Sim PTX: 2200000 instructions simulated : ctaid=(5,1,0) tid=(15,5,0)
GPGPU-Sim PTX: 2300000 instructions simulated : ctaid=(8,1,0) tid=(15,3,0)
GPGPU-Sim uArch: cycles simulated: 5500  inst.: 2322112 (ipc=422.2) sim_rate=774037 (inst/sec) elapsed = 0:0:00:03 / Mon Nov 28 10:12:05 2011
GPGPU-Sim PTX: 2400000 instructions simulated : ctaid=(26,0,0) tid=(15,5,0)
GPGPU-Sim PTX: 2500000 instructions simulated : ctaid=(30,0,0) tid=(15,5,0)
GPGPU-Sim PTX: 2600000 instructions simulated : ctaid=(25,0,0) tid=(15,1,0)
GPGPU-Sim PTX: 2700000 instructions simulated : ctaid=(43,0,0) tid=(15,3,0)
GPGPU-Sim uArch: cycles simulated: 6000  inst.: 2687392 (ipc=447.9) sim_rate=671848 (inst/sec) elapsed = 0:0:00:04 / Mon Nov 28 10:12:06 2011
GPGPU-Sim PTX: 2800000 instructions simulated : ctaid=(46,0,0) tid=(15,1,0)
GPGPU-Sim PTX: 2900000 instructions simulated : ctaid=(1,1,0) tid=(15,3,0)
GPGPU-Sim PTX: 3000000 instructions simulated : ctaid=(19,0,0) tid=(15,3,0)
GPGPU-Sim uArch: cycles simulated: 6500  inst.: 3005376 (ipc=462.4) sim_rate=751344 (inst/sec) elapsed = 0:0:00:04 / Mon Nov 28 10:12:06 2011
GPGPU-Sim PTX: 3100000 instructions simulated : ctaid=(12,0,0) tid=(15,3,0)
GPGPU-Sim PTX: 3200000 instructions simulated : ctaid=(21,0,0) tid=(15,5,0)
GPGPU-Sim PTX: 3300000 instructions simulated : ctaid=(7,1,0) tid=(15,3,0)
GPGPU-Sim PTX: 3400000 instructions simulated : ctaid=(20,0,0) tid=(15,1,0)
GPGPU-Sim uArch: cycles simulated: 7000  inst.: 3368480 (ipc=481.2) sim_rate=842120 (inst/sec) elapsed = 0:0:00:04 / Mon Nov 28 10:12:06 2011
GPGPU-Sim PTX: 3500000 instructions simulated : ctaid=(37,0,0) tid=(15,1,0)
GPGPU-Sim PTX: 3600000 instructions simulated : ctaid=(3,0,0) tid=(15,7,0)
GPGPU-Sim PTX: 3700000 instructions simulated : ctaid=(5,0,0) tid=(15,1,0)
GPGPU-Sim PTX: 3800000 instructions simulated : ctaid=(3,1,0) tid=(6,6,0)
GPGPU-Sim uArch: cycles simulated: 7500  inst.: 3775312 (ipc=503.4) sim_rate=755062 (inst/sec) elapsed = 0:0:00:05 / Mon Nov 28 10:12:07 2011
GPGPU-Sim PTX: 3900000 instructions simulated : ctaid=(0,1,0) tid=(15,6,0)
GPGPU-Sim PTX: 4000000 instructions simulated : ctaid=(15,0,0) tid=(15,5,0)
GPGPU-Sim PTX: 4100000 instructions simulated : ctaid=(37,0,0) tid=(15,5,0)
GPGPU-Sim PTX: 4200000 instructions simulated : ctaid=(9,1,0) tid=(15,1,0)
GPGPU-Sim uArch: cycles simulated: 8000  inst.: 4166464 (ipc=520.8) sim_rate=833292 (inst/sec) elapsed = 0:0:00:05 / Mon Nov 28 10:12:07 2011
GPGPU-Sim PTX: 4300000 instructions simulated : ctaid=(12,0,0) tid=(15,7,0)
GPGPU-Sim PTX: 4400000 instructions simulated : ctaid=(36,0,0) tid=(15,3,0)
GPGPU-Sim PTX: 4500000 instructions simulated : ctaid=(5,0,0) tid=(1,3,0)
GPGPU-Sim PTX: 4600000 instructions simulated : ctaid=(47,0,0) tid=(7,0,0)
GPGPU-Sim uArch: cycles simulated: 8500  inst.: 4507576 (ipc=530.3) sim_rate=901515 (inst/sec) elapsed = 0:0:00:05 / Mon Nov 28 10:12:07 2011
GPGPU-Sim PTX: 4700000 instructions simulated : ctaid=(0,1,0) tid=(7,4,0)
GPGPU-Sim PTX: 4800000 instructions simulated : ctaid=(18,0,0) tid=(7,4,0)
GPGPU-Sim PTX: 4900000 instructions simulated : ctaid=(46,0,0) tid=(7,4,0)
GPGPU-Sim uArch: cycles simulated: 9000  inst.: 4841816 (ipc=538.0) sim_rate=806969 (inst/sec) elapsed = 0:0:00:06 / Mon Nov 28 10:12:08 2011
GPGPU-Sim PTX: 5000000 instructions simulated : ctaid=(9,1,0) tid=(7,6,0)
GPGPU-Sim PTX: 5100000 instructions simulated : ctaid=(21,0,0) tid=(11,1,0)
GPGPU-Sim PTX: 5200000 instructions simulated : ctaid=(34,0,0) tid=(11,1,0)
GPGPU-Sim PTX: 5300000 instructions simulated : ctaid=(0,0,0) tid=(3,5,0)
GPGPU-Sim uArch: cycles simulated: 9500  inst.: 5174868 (ipc=544.7) sim_rate=862478 (inst/sec) elapsed = 0:0:00:06 / Mon Nov 28 10:12:08 2011
GPGPU-Sim PTX: 5400000 instructions simulated : ctaid=(7,0,0) tid=(3,3,0)
GPGPU-Sim PTX: 5500000 instructions simulated : ctaid=(5,0,0) tid=(3,1,0)
GPGPU-Sim PTX: 5600000 instructions simulated : ctaid=(29,0,0) tid=(3,3,0)
GPGPU-Sim uArch: cycles simulated: 10000  inst.: 5463978 (ipc=546.4) sim_rate=910663 (inst/sec) elapsed = 0:0:00:06 / Mon Nov 28 10:12:08 2011
GPGPU-Sim PTX: 5700000 instructions simulated : ctaid=(7,1,0) tid=(5,5,0)
GPGPU-Sim PTX: 5800000 instructions simulated : ctaid=(49,0,0) tid=(5,7,0)
GPGPU-Sim PTX: 5900000 instructions simulated : ctaid=(16,0,0) tid=(5,5,0)
GPGPU-Sim uArch: cycles simulated: 10500  inst.: 5760616 (ipc=548.6) sim_rate=822945 (inst/sec) elapsed = 0:0:00:07 / Mon Nov 28 10:12:09 2011
GPGPU-Sim PTX: 6000000 instructions simulated : ctaid=(8,1,0) tid=(5,3,0)
GPGPU-Sim PTX: 6100000 instructions simulated : ctaid=(36,0,0) tid=(5,5,0)
GPGPU-Sim PTX: 6200000 instructions simulated : ctaid=(21,0,0) tid=(5,1,0)
GPGPU-Sim uArch: cycles simulated: 11000  inst.: 6073480 (ipc=552.1) sim_rate=867640 (inst/sec) elapsed = 0:0:00:07 / Mon Nov 28 10:12:09 2011
GPGPU-Sim PTX: 6300000 instructions simulated : ctaid=(40,0,0) tid=(5,3,0)
GPGPU-Sim PTX: 6400000 instructions simulated : ctaid=(38,0,0) tid=(5,3,0)
GPGPU-Sim PTX: 6500000 instructions simulated : ctaid=(8,0,0) tid=(5,5,0)
GPGPU-Sim PTX: 6600000 instructions simulated : ctaid=(19,0,0) tid=(15,4,0)
GPGPU-Sim uArch: cycles simulated: 11500  inst.: 6458610 (ipc=561.6) sim_rate=922658 (inst/sec) elapsed = 0:0:00:07 / Mon Nov 28 10:12:09 2011
GPGPU-Sim PTX: 6700000 instructions simulated : ctaid=(37,0,0) tid=(12,4,0)
GPGPU-Sim PTX: 6800000 instructions simulated : ctaid=(40,0,0) tid=(7,2,0)
GPGPU-Sim PTX: 6900000 instructions simulated : ctaid=(9,1,0) tid=(3,6,0)
GPGPU-Sim PTX: 7000000 instructions simulated : ctaid=(16,0,0) tid=(12,0,0)
GPGPU-Sim uArch: cycles simulated: 12000  inst.: 6870304 (ipc=572.5) sim_rate=858788 (inst/sec) elapsed = 0:0:00:08 / Mon Nov 28 10:12:10 2011
GPGPU-Sim PTX: 7100000 instructions simulated : ctaid=(39,0,0) tid=(15,2,0)
GPGPU-Sim PTX: 7200000 instructions simulated : ctaid=(19,0,0) tid=(0,3,0)
GPGPU-Sim PTX: 7300000 instructions simulated : ctaid=(17,0,0) tid=(14,0,0)
GPGPU-Sim PTX: 7400000 instructions simulated : ctaid=(49,0,0) tid=(10,0,0)
GPGPU-Sim uArch: cycles simulated: 12500  inst.: 7282566 (ipc=582.6) sim_rate=910320 (inst/sec) elapsed = 0:0:00:08 / Mon Nov 28 10:12:10 2011
GPGPU-Sim PTX: 7500000 instructions simulated : ctaid=(39,0,0) tid=(13,4,0)
GPGPU-Sim PTX: 7600000 instructions simulated : ctaid=(18,0,0) tid=(13,5,0)
GPGPU-Sim PTX: 7700000 instructions simulated : ctaid=(2,1,0) tid=(0,1,0)
GPGPU-Sim PTX: 7800000 instructions simulated : ctaid=(18,0,0) tid=(13,1,0)
GPGPU-Sim uArch: cycles simulated: 13000  inst.: 7627069 (ipc=586.7) sim_rate=953383 (inst/sec) elapsed = 0:0:00:08 / Mon Nov 28 10:12:10 2011
GPGPU-Sim PTX: 7900000 instructions simulated : ctaid=(20,0,0) tid=(8,7,0)
GPGPU-Sim PTX: 8000000 instructions simulated : ctaid=(10,0,0) tid=(2,0,0)
GPGPU-Sim PTX: 8100000 instructions simulated : ctaid=(10,0,0) tid=(7,6,0)