

        *** GPGPU-Sim version 3.0.1 (build 11015) ***


GPGPU-Sim PTX: simulation mode 0 (can change with PTX_SIM_MODE_FUNC environment variable:
               1=functional simulation only, 0=detailed performance simulator)
GPGPU-Sim: Configuration options:

-network_mode                           1 # Interconnection network mode
-inter_config_file   icnt_config_quadro_islip.txt # Interconnection network config file
-gpgpu_ptx_convert_to_ptxplus                    0 # Convert embedded ptx to ptxplus
-gpgpu_ptx_save_converted_ptxplus                    0 # Saved converted ptxplus to a file
-gpgpu_ptx_force_max_capability                   12 # Force maximum compute capability
-gpgpu_ptx_inst_debug_to_file                    0 # Dump executed instructions' debug information to file
-gpgpu_ptx_inst_debug_file       inst_debug.txt # Executed instructions' debug output file
-gpgpu_ptx_inst_debug_thread_uid                    1 # Thread UID for executed instructions' debug output
-gpgpu_simd_model                       1 # 1 = post-dominator
-gpgpu_shader_core_pipeline              1024:32 # shader core pipeline config, i.e., {<nthread>:<warpsize>}
-gpgpu_tex_cache:l1  8:128:5:L:R:m,F:128:4,128:2 # per-shader L1 texture cache  (READ-ONLY) config  {<nsets>:<bsize>:<assoc>:<rep>:<wr>:<alloc>,<mshr>:<N>:<merge>,<mq>:<rf>}
-gpgpu_const_cache:l1 64:64:2:L:R:f,A:2:32,4 # per-shader L1 constant memory cache  (READ-ONLY) config  {<nsets>:<bsize>:<assoc>:<rep>:<wr>:<alloc>,<mshr>:<N>:<merge>,<mq>}
-gpgpu_cache:il1     4:256:4:L:R:f,A:2:32,4 # shader L1 instruction cache config  {<nsets>:<bsize>:<assoc>:<rep>:<wr>:<alloc>,<mshr>:<N>:<merge>,<mq>}
-gpgpu_cache:dl1                     none # per-shader L1 data cache config  {<nsets>:<bsize>:<assoc>:<rep>:<wr>:<alloc>,<mshr>:<N>:<merge>,<mq>|none}
-gpgpu_perfect_mem                      0 # enable perfect memory mode (no cache miss)
-gpgpu_shader_registers                16384 # Number of registers per shader core. Limits number of concurrent CTAs. (default 8192)
-gpgpu_shader_cta                       8 # Maximum number of concurrent CTAs in shader (default 8)
-gpgpu_n_clusters                      10 # number of processing clusters
-gpgpu_n_cores_per_cluster                    3 # number of simd cores per cluster
-gpgpu_n_cluster_ejection_buffer_size                    8 # number of packets in ejection buffer
-gpgpu_n_ldst_response_buffer_size                    2 # number of response packets in ld/st unit ejection buffer
-gpgpu_shmem_size                   16384 # Size of shared memory per shader core (default 16kB)
-gpgpu_shmem_warp_parts                    2 # Number of portions a warp is divided into for shared memory bank conflict check 
-gpgpu_warpdistro_shader                   -1 # Specify which shader core to collect the warp size distribution from
-gpgpu_local_mem_map                    1 # Mapping from local memory space address to simulated GPU physical address space (default = enabled)
-gpgpu_num_reg_banks                    8 # Number of register banks (default = 8)
-gpgpu_reg_bank_use_warp_id                    0 # Use warp ID in mapping registers to banks (default = off)
-gpgpu_operand_collector_num_units_sp                    6 # number of collector units (default = 4)
-gpgpu_operand_collector_num_units_sfu                    8 # number of collector units (default = 4)
-gpgpu_operand_collector_num_units_mem                    2 # number of collector units (default = 2)
-gpgpu_operand_collector_num_units_gen                    0 # number of collector units (default = 0)
-gpgpu_operand_collector_num_in_ports_sp                    1 # number of collector unit in ports (default = 1)
-gpgpu_operand_collector_num_in_ports_sfu                    1 # number of collector unit in ports (default = 1)
-gpgpu_operand_collector_num_in_ports_mem                    1 # number of collector unit in ports (default = 1)
-gpgpu_operand_collector_num_in_ports_gen                    0 # number of collector unit in ports (default = 0)
-gpgpu_operand_collector_num_out_ports_sp                    1 # number of collector unit in ports (default = 1)
-gpgpu_operand_collector_num_out_ports_sfu                    1 # number of collector unit in ports (default = 1)
-gpgpu_operand_collector_num_out_ports_mem                    1 # number of collector unit in ports (default = 1)
-gpgpu_operand_collector_num_out_ports_gen                    0 # number of collector unit in ports (default = 0)
-gpgpu_coalesce_arch                   13 # Coalescing arch (default = 13, anything else is off for now)
-gpgpu_num_sched_per_core                    1 # Number of warp schedulers per core
-gpgpu_max_insn_issue_per_warp                    2 # Max number of instructions that can be issued per warp in one cycle by scheduler
-gpgpu_dram_scheduler                    1 # 0 = fifo, 1 = FR-FCFS (defaul)
-gpgpu_dram_partition_queues              8:8:8:8 # i2$:$2d:d2$:$2i
-l2_ideal                               0 # Use a ideal L2 cache that always hit
-gpgpu_cache:dl2     64:32:8:L:R:m,A:16:4,4 # unified banked L2 data cache config  {<nsets>:<bsize>:<assoc>:<rep>:<wr>:<alloc>,<mshr>:<N>:<merge>,<mq>}
-gpgpu_cache:dl2_texture_only                    0 # L2 cache used for texture only
-gpgpu_n_mem                            8 # number of memory modules (e.g. memory controllers) in gpu
-gpgpu_n_mem_per_ctrlr                    2 # number of memory chips per memory controller
-gpgpu_memlatency_stat                   14 # track and display latency statistics 0x2 enables MC, 0x4 enables queue logs
-gpgpu_dram_sched_queue_size                   16 # 0 = unlimited (default); # entries per chip
-gpgpu_dram_buswidth                    4 # default = 4 bytes (8 bytes per cycle at DDR)
-gpgpu_dram_burst_length                    4 # Burst length of each DRAM request (default = 4 DDR cycle)
-gpgpu_dram_timing_opt 8:2:8:12:25:10:35:10:7:6:11 # DRAM timing parameters = {nbk:tCCD:tRRD:tRCD:tRAS:tRP:tRC:CL:WL:tCDLR:tWR}
-gpgpu_mem_addr_mapping dramid@8;00000000.00000000.00000000.00000000.0000RRRR.RRRRRRRR.RRBBBCCC.CCCSSSSS # mapping memory address to dram model {dramid@<start bit>;<memory address map>}
-gpgpu_mem_address_mask                    1 # 0 = old addressing mask, 1 = new addressing mask, 2 = new add. mask + flipped bank sel and chip sel bits
-gpgpu_max_cycle                        0 # terminates gpu simulation early (0 = no limit)
-gpgpu_max_insn                         0 # terminates gpu simulation early (0 = no limit)
-gpgpu_max_cta                          0 # terminates gpu simulation early (0 = no limit)
-gpgpu_runtime_stat                   500 # display runtime statistics such as dram utilization {<freq>:<flag>}
-gpgpu_flush_cache                      0 # Flush cache at the end of each kernel call
-gpgpu_deadlock_detect                    1 # Stop the simulation at deadlock (1=on (default), 0=off)
-gpgpu_ptx_instruction_classification                    0 # if enabled will classify ptx instruction types per kernel (Max 255 kernels now)
-gpgpu_ptx_sim_mode                     0 # Select between Performance (default) or Functional simulation (1)
-gpgpu_clock_domains 325.0:650.0:650.0:800.0 # Clock Domain Frequencies in MhZ {<Core Clock>:<ICNT Clock>:<L2 Clock>:<DRAM Clock>}
-gpgpu_max_concurrent_kernel                    8 # maximum kernels that can run concurrently on GPU
-gpgpu_cflog_interval                    0 # Interval between each snapshot in control flow logger
-visualizer_enabled                     0 # Turn on visualizer output (1=On, 0=Off)
-visualizer_outputfile                 NULL # Specifies the output log file for visualizer
-visualizer_zlevel                      6 # Compression level of the visualizer output log (0=no comp, 9=highest)
-enable_ptx_file_line_stats                    1 # Turn on PTX source line statistic profiling. (1 = On)
-ptx_line_stats_filename gpgpu_inst_stats.txt # Output file for PTX source line statistics.
-save_embedded_ptx                      0 # saves ptx files embedded in binary as <n>.ptx
-keep                                   0 # keep intermediate files created by GPGPU-Sim when interfacing with external programs
addr_dec_mask[CHIP]  = 0000000000000700 	high:11 low:8
addr_dec_mask[BK]    = 000000000001c000 	high:17 low:14
addr_dec_mask[ROW]   = 000000007ffe0000 	high:31 low:17
addr_dec_mask[COL]   = 00000000000038ff 	high:14 low:0
addr_dec_mask[BURST] = 000000000000001f 	high:5 low:0
GPGPU-Sim uArch: clock freqs: 325000000.000000:650000000.000000:650000000.000000:800000000.000000
GPGPU-Sim uArch: clock periods: 0.00000000307692307692:0.00000000153846153846:0.00000000153846153846:0.00000000125000000000
*** Initializing Memory Statistics ***
GPGPU-Sim uArch: interconnect nodemap
GPGPU-Sim uArch:   0 
GPGPU-Sim uArch:   1   2   3   4 
GPGPU-Sim uArch:   5   6   7   8 
GPGPU-Sim uArch:   9  10  11  12 
GPGPU-Sim uArch:  13  14  15  16 
GPGPU-Sim uArch:  17 GPGPU-Sim uArch: performance model initialization complete.
GPGPU-Sim PTX: __cudaRegisterFatBinary found PTX versions for 'bfs.cu', capability = compute_10
GPGPU-Sim PTX: Loading PTX for bfs.cu, capability = compute_10
GPGPU-Sim PTX: instruction assembly for function '_Z6KernelP4NodePiPbS2_S1_S2_i'...   done.
GPGPU-Sim PTX: finding reconvergence points for '_Z6KernelP4NodePiPbS2_S1_S2_i'...
GPGPU-Sim PTX: Finding dominators for '_Z6KernelP4NodePiPbS2_S1_S2_i'...
GPGPU-Sim PTX: Finding immediate dominators for '_Z6KernelP4NodePiPbS2_S1_S2_i'...
GPGPU-Sim PTX: Finding postdominators for '_Z6KernelP4NodePiPbS2_S1_S2_i'...
GPGPU-Sim PTX: Finding immediate postdominators for '_Z6KernelP4NodePiPbS2_S1_S2_i'...
GPGPU-Sim PTX: pre-decoding instructions for '_Z6KernelP4NodePiPbS2_S1_S2_i'... GPGPU-Sim PTX: Reconvergence Pairs for _Z6KernelP4NodePiPbS2_S1_S2_i
GPGPU-Sim PTX:   branch pc = 48	target pc = 504
GPGPU-Sim PTX:   branch pc = 104	target pc = 504
GPGPU-Sim PTX:   branch pc = 224	target pc = 504
GPGPU-Sim PTX:   branch pc = 320	target pc = 472
GPGPU-Sim PTX:   branch pc = 496	target pc = 504
  done.
GPGPU-Sim PTX: finished parsing EMBEDDED .ptx file _1.ptx
GPGPU-Sim PTX: extracting embedded .ptx to temporary file "_ptx_AzUaLM"
GPGPU-Sim PTX: generating ptxinfo using "ptxas --gpu-name=sm_20 -v _ptx2_mwIiFm --output-file /dev/null 2> _ptx_AzUaLMinfo"
GPGPU-Sim PTX: Kernel '_Z6KernelP4NodePiPbS2_S1_S2_i' : regs=18, lmem=0, smem=0, cmem=84
GPGPU-Sim PTX: removing ptxinfo using "rm -f _ptx_AzUaLM _ptx2_mwIiFm _ptx_AzUaLMinfo"
GPGPU-Sim PTX: loading globals with explicit initializers... 
GPGPU-Sim PTX: finished loading globals (0 bytes total).
GPGPU-Sim PTX: loading constants with explicit initializers...  done.
GPGPU-Sim PTX: __cudaRegisterFunction _Z6KernelP4NodePiPbS2_S1_S2_i : hostFun 0x0x405b14, fat_cubin_handle = 1
Reading File
Input file: data/graph65536.txt
Read File
Copied Everything to GPU memory

GPGPU-Sim PTX: cudaLaunch for 0x0x405b14 (mode=performance simulation) on stream 0
GPGPU-Sim PTX: pushing kernel '_Z6KernelP4NodePiPbS2_S1_S2_i' to stream 0, gridDim= (256,1,1) blockDim = (256,1,1) 
kernel '_Z6KernelP4NodePiPbS2_S1_S2_i' transfer to GPU hardware scheduler
GPGPU-Sim uArch: Shader 3 bind to kernel 1 '_Z6KernelP4NodePiPbS2_S1_S2_i'
GPGPU-Sim uArch: CTA/core = 3, limited by: regs
GPGPU-Sim uArch: core:  3, cta: 0 initialized @(1,0)
GPGPU-Sim uArch: Shader 9 bind to kernel 1 '_Z6KernelP4NodePiPbS2_S1_S2_i'
GPGPU-Sim uArch: core:  9, cta: 0 initialized @(1,0)
GPGPU-Sim uArch: Shader 18 bind to kernel 1 '_Z6KernelP4NodePiPbS2_S1_S2_i'
GPGPU-Sim uArch: core: 18, cta: 0 initialized @(1,0)
GPGPU-Sim uArch: Shader 0 bind to kernel 1 '_Z6KernelP4NodePiPbS2_S1_S2_i'
GPGPU-Sim uArch: core:  0, cta: 0 initialized @(1,0)
GPGPU-Sim uArch: Shader 15 bind to kernel 1 '_Z6KernelP4NodePiPbS2_S1_S2_i'
GPGPU-Sim uArch: core: 15, cta: 0 initialized @(1,0)
GPGPU-Sim uArch: Shader 4 bind to kernel 1 '_Z6KernelP4NodePiPbS2_S1_S2_i'
GPGPU-Sim uArch: core:  4, cta: 0 initialized @(1,0)
GPGPU-Sim uArch: Shader 24 bind to kernel 1 '_Z6KernelP4NodePiPbS2_S1_S2_i'
GPGPU-Sim uArch: core: 24, cta: 0 initialized @(1,0)
GPGPU-Sim uArch: Shader 19 bind to kernel 1 '_Z6KernelP4NodePiPbS2_S1_S2_i'
GPGPU-Sim uArch: core: 19, cta: 0 initialized @(1,0)
GPGPU-Sim uArch: Shader 16 bind to kernel 1 '_Z6KernelP4NodePiPbS2_S1_S2_i'
GPGPU-Sim uArch: core: 16, cta: 0 initialized @(1,0)
GPGPU-Sim uArch: Shader 17 bind to kernel 1 '_Z6KernelP4NodePiPbS2_S1_S2_i'
GPGPU-Sim uArch: core: 17, cta: 0 initialized @(1,0)
GPGPU-Sim uArch: Shader 20 bind to kernel 1 '_Z6KernelP4NodePiPbS2_S1_S2_i'
GPGPU-Sim uArch: core: 20, cta: 0 initialized @(2,0)
GPGPU-Sim uArch: Shader 25 bind to kernel 1 '_Z6KernelP4NodePiPbS2_S1_S2_i'
GPGPU-Sim uArch: core: 25, cta: 0 initialized @(2,0)
GPGPU-Sim uArch: Shader 5 bind to kernel 1 '_Z6KernelP4NodePiPbS2_S1_S2_i'
GPGPU-Sim uArch: core:  5, cta: 0 initialized @(2,0)
GPGPU-Sim uArch: core: 15, cta: 1 initialized @(2,0)
GPGPU-Sim uArch: Shader 1 bind to kernel 1 '_Z6KernelP4NodePiPbS2_S1_S2_i'
GPGPU-Sim uArch: core:  1, cta: 0 initialized @(2,0)
GPGPU-Sim uArch: core: 18, cta: 1 initialized @(2,0)
GPGPU-Sim uArch: Shader 10 bind to kernel 1 '_Z6KernelP4NodePiPbS2_S1_S2_i'
GPGPU-Sim uArch: core: 10, cta: 0 initialized @(2,0)
GPGPU-Sim uArch: core:  3, cta: 1 initialized @(2,0)
GPGPU-Sim uArch: Shader 2 bind to kernel 1 '_Z6KernelP4NodePiPbS2_S1_S2_i'
GPGPU-Sim uArch: core:  2, cta: 0 initialized @(2,0)
GPGPU-Sim uArch: core:  0, cta: 1 initialized @(2,0)
GPGPU-Sim uArch: core:  4, cta: 1 initialized @(3,0)
GPGPU-Sim uArch: Shader 11 bind to kernel 1 '_Z6KernelP4NodePiPbS2_S1_S2_i'
GPGPU-Sim uArch: core: 11, cta: 0 initialized @(3,0)
GPGPU-Sim uArch: core: 19, cta: 1 initialized @(3,0)
GPGPU-Sim uArch: core:  1, cta: 1 initialized @(3,0)
GPGPU-Sim uArch: core: 16, cta: 1 initialized @(3,0)
GPGPU-Sim uArch: core:  5, cta: 1 initialized @(3,0)
GPGPU-Sim uArch: Shader 26 bind to kernel 1 '_Z6KernelP4NodePiPbS2_S1_S2_i'
GPGPU-Sim uArch: core: 26, cta: 0 initialized @(3,0)
GPGPU-Sim uArch: core: 20, cta: 1 initialized @(3,0)
GPGPU-Sim uArch: core: 17, cta: 1 initialized @(3,0)
GPGPU-Sim uArch: core: 15, cta: 2 initialized @(3,0)
GPGPU-Sim uArch: core: 18, cta: 2 initialized @(4,0)
GPGPU-Sim uArch: core: 24, cta: 1 initialized @(4,0)
GPGPU-Sim uArch: core:  3, cta: 2 initialized @(4,0)
GPGPU-Sim uArch: core: 16, cta: 2 initialized @(4,0)
GPGPU-Sim uArch: core:  2, cta: 1 initialized @(4,0)
GPGPU-Sim uArch: core: 19, cta: 2 initialized @(4,0)
GPGPU-Sim uArch: core:  9, cta: 1 initialized @(4,0)
GPGPU-Sim uArch: core:  4, cta: 2 initialized @(4,0)
GPGPU-Sim uArch: core:  0, cta: 2 initialized @(4,0)
GPGPU-Sim uArch: core:  1, cta: 2 initialized @(4,0)
GPGPU-Sim uArch: core:  5, cta: 2 initialized @(5,0)
GPGPU-Sim uArch: core: 10, cta: 1 initialized @(5,0)
GPGPU-Sim uArch: core: 20, cta: 2 initialized @(5,0)
GPGPU-Sim uArch: core:  2, cta: 2 initialized @(5,0)
GPGPU-Sim uArch: core: 17, cta: 2 initialized @(5,0)
GPGPU-Sim uArch: Shader 6 bind to kernel 1 '_Z6KernelP4NodePiPbS2_S1_S2_i'
GPGPU-Sim uArch: core:  6, cta: 0 initialized @(5,0)
GPGPU-Sim uArch: Shader 7 bind to kernel 1 '_Z6KernelP4NodePiPbS2_S1_S2_i'
GPGPU-Sim uArch: core:  7, cta: 0 initialized @(5,0)
GPGPU-Sim uArch: core: 11, cta: 1 initialized @(6,0)
GPGPU-Sim uArch: Shader 21 bind to kernel 1 '_Z6KernelP4NodePiPbS2_S1_S2_i'
GPGPU-Sim uArch: core: 21, cta: 0 initialized @(6,0)
GPGPU-Sim uArch: Shader 8 bind to kernel 1 '_Z6KernelP4NodePiPbS2_S1_S2_i'
GPGPU-Sim uArch: core:  8, cta: 0 initialized @(6,0)
GPGPU-Sim uArch: core: 25, cta: 1 initialized @(6,0)
GPGPU-Sim uArch: Shader 22 bind to kernel 1 '_Z6KernelP4NodePiPbS2_S1_S2_i'
GPGPU-Sim uArch: core: 22, cta: 0 initialized @(6,0)
GPGPU-Sim uArch: Shader 23 bind to kernel 1 '_Z6KernelP4NodePiPbS2_S1_S2_i'
GPGPU-Sim uArch: core: 23, cta: 0 initialized @(6,0)
GPGPU-Sim uArch: core: 26, cta: 1 initialized @(7,0)
GPGPU-Sim uArch: core:  6, cta: 1 initialized @(7,0)
GPGPU-Sim uArch: core: 21, cta: 1 initialized @(7,0)
GPGPU-Sim uArch: core:  9, cta: 2 initialized @(7,0)
GPGPU-Sim uArch: core:  7, cta: 1 initialized @(7,0)
GPGPU-Sim uArch: core:  8, cta: 1 initialized @(7,0)
GPGPU-Sim uArch: core: 10, cta: 2 initialized @(8,0)
GPGPU-Sim uArch: core: 22, cta: 1 initialized @(8,0)
GPGPU-Sim uArch: core:  6, cta: 2 initialized @(8,0)
GPGPU-Sim uArch: core: 24, cta: 2 initialized @(8,0)
GPGPU-Sim uArch: core: 23, cta: 1 initialized @(8,0)
GPGPU-Sim uArch: core: 21, cta: 2 initialized @(8,0)
GPGPU-Sim uArch: core: 25, cta: 2 initialized @(9,0)
GPGPU-Sim uArch: core:  7, cta: 2 initialized @(9,0)
GPGPU-Sim uArch: core: 22, cta: 2 initialized @(9,0)
GPGPU-Sim uArch: core: 11, cta: 2 initialized @(9,0)
GPGPU-Sim uArch: core:  8, cta: 2 initialized @(9,0)
GPGPU-Sim uArch: Shader 12 bind to kernel 1 '_Z6KernelP4NodePiPbS2_S1_S2_i'
GPGPU-Sim uArch: core: 12, cta: 0 initialized @(10,0)
GPGPU-Sim uArch: core: 23, cta: 2 initialized @(10,0)
GPGPU-Sim uArch: Shader 13 bind to kernel 1 '_Z6KernelP4NodePiPbS2_S1_S2_i'
GPGPU-Sim uArch: core: 13, cta: 0 initialized @(10,0)
GPGPU-Sim uArch: Shader 14 bind to kernel 1 '_Z6KernelP4NodePiPbS2_S1_S2_i'
GPGPU-Sim uArch: core: 14, cta: 0 initialized @(10,0)
GPGPU-Sim uArch: core: 26, cta: 2 initialized @(11,0)
GPGPU-Sim uArch: core: 12, cta: 1 initialized @(11,0)
GPGPU-Sim uArch: core: 13, cta: 1 initialized @(11,0)
GPGPU-Sim uArch: Shader 27 bind to kernel 1 '_Z6KernelP4NodePiPbS2_S1_S2_i'
GPGPU-Sim uArch: core: 27, cta: 0 initialized @(12,0)
GPGPU-Sim uArch: Shader 28 bind to kernel 1 '_Z6KernelP4NodePiPbS2_S1_S2_i'
GPGPU-Sim uArch: core: 28, cta: 0 initialized @(12,0)
GPGPU-Sim uArch: core: 14, cta: 1 initialized @(13,0)
GPGPU-Sim uArch: core: 12, cta: 2 initialized @(13,0)
GPGPU-Sim uArch: Shader 29 bind to kernel 1 '_Z6KernelP4NodePiPbS2_S1_S2_i'
GPGPU-Sim uArch: core: 29, cta: 0 initialized @(14,0)
GPGPU-Sim uArch: core: 27, cta: 1 initialized @(14,0)
GPGPU-Sim uArch: core: 13, cta: 2 initialized @(15,0)
GPGPU-Sim uArch: core: 14, cta: 2 initialized @(15,0)
GPGPU-Sim uArch: core: 28, cta: 1 initialized @(16,0)
GPGPU-Sim uArch: core: 29, cta: 1 initialized @(16,0)
GPGPU-Sim uArch: core: 27, cta: 2 initialized @(17,0)
GPGPU-Sim uArch: core: 28, cta: 2 initialized @(18,0)
GPGPU-Sim uArch: core: 29, cta: 2 initialized @(19,0)
GPGPU-Sim PTX: 100000 instructions simulated : ctaid=(10,0,0) tid=(95,0,0)
GPGPU-Sim uArch: cycles simulated: 500  inst.: 162496 (ipc=325.0) sim_rate=162496 (inst/sec) elapsed = 0:0:00:01 / Mon Nov 28 14:19:14 2011
GPGPU-Sim PTX: 200000 instructions simulated : ctaid=(36,0,0) tid=(127,0,0)
GPGPU-Sim PTX: 300000 instructions simulated : ctaid=(33,0,0) tid=(149,0,0)
GPGPU-Sim uArch: Shader 9 finished CTA #1 (885,0), 2 CTAs running
GPGPU-Sim uArch: core:  9, cta: 1 initialized @(886,0)
GPGPU-Sim uArch: Shader 9 finished CTA #0 (886,0), 2 CTAs running
GPGPU-Sim uArch: core:  9, cta: 0 initialized @(887,0)
GPGPU-Sim uArch: Shader 18 finished CTA #0 (891,0), 2 CTAs running
GPGPU-Sim uArch: core: 18, cta: 0 initialized @(892,0)
GPGPU-Sim uArch: Shader 9 finished CTA #2 (894,0), 2 CTAs running
GPGPU-Sim uArch: core:  9, cta: 2 initialized @(895,0)
GPGPU-Sim uArch: Shader 0 finished CTA #0 (895,0), 2 CTAs running
GPGPU-Sim uArch: Shader 0 finished CTA #1 (895,0), 1 CTAs running
GPGPU-Sim uArch: core:  0, cta: 0 initialized @(896,0)
GPGPU-Sim uArch: core:  0, cta: 1 initialized @(896,0)
GPGPU-Sim uArch: Shader 18 finished CTA #1 (900,0), 2 CTAs running
GPGPU-Sim uArch: Shader 18 finished CTA #2 (900,0), 1 CTAs running
GPGPU-Sim uArch: Shader 24 finished CTA #1 (900,0), 2 CTAs running
GPGPU-Sim uArch: core: 18, cta: 1 initialized @(901,0)
GPGPU-Sim uArch: core: 18, cta: 2 initialized @(901,0)
GPGPU-Sim uArch: core: 24, cta: 1 initialized @(902,0)
GPGPU-Sim uArch: Shader 1 finished CTA #1 (904,0), 2 CTAs running
GPGPU-Sim uArch: core:  1, cta: 1 initialized @(905,0)
GPGPU-Sim uArch: Shader 3 finished CTA #1 (908,0), 2 CTAs running
GPGPU-Sim uArch: core:  3, cta: 1 initialized @(909,0)
GPGPU-Sim uArch: Shader 24 finished CTA #2 (910,0), 2 CTAs running
GPGPU-Sim uArch: Shader 24 finished CTA #0 (910,0), 1 CTAs running
GPGPU-Sim uArch: core: 24, cta: 0 initialized @(911,0)
GPGPU-Sim uArch: core: 24, cta: 2 initialized @(911,0)
GPGPU-Sim uArch: Shader 0 finished CTA #2 (912,0), 2 CTAs running
GPGPU-Sim uArch: core:  0, cta: 2 initialized @(913,0)
GPGPU-Sim uArch: Shader 4 finished CTA #1 (913,0), 2 CTAs running
GPGPU-Sim uArch: core:  4, cta: 1 initialized @(914,0)
GPGPU-Sim uArch: Shader 1 finished CTA #2 (916,0), 2 CTAs running
GPGPU-Sim uArch: core:  1, cta: 2 initialized @(917,0)
GPGPU-Sim uArch: Shader 3 finished CTA #2 (917,0), 2 CTAs running
GPGPU-Sim uArch: core:  3, cta: 2 initialized @(918,0)
GPGPU-Sim uArch: Shader 15 finished CTA #1 (918,0), 2 CTAs running
GPGPU-Sim uArch: core: 15, cta: 1 initialized @(919,0)
GPGPU-Sim uArch: Shader 4 finished CTA #2 (922,0), 2 CTAs running
GPGPU-Sim uArch: Shader 4 finished CTA #0 (922,0), 1 CTAs running
GPGPU-Sim uArch: core:  4, cta: 0 initialized @(923,0)
GPGPU-Sim uArch: core:  4, cta: 2 initialized @(923,0)
GPGPU-Sim uArch: Shader 1 finished CTA #0 (925,0), 2 CTAs running
GPGPU-Sim uArch: core:  1, cta: 0 initialized @(926,0)
GPGPU-Sim uArch: Shader 15 finished CTA #2 (927,0), 2 CTAs running
GPGPU-Sim uArch: Shader 15 finished CTA #0 (927,0), 1 CTAs running
GPGPU-Sim uArch: core: 15, cta: 0 initialized @(928,0)
GPGPU-Sim uArch: core: 15, cta: 2 initialized @(928,0)
GPGPU-Sim uArch: Shader 6 finished CTA #1 (965,0), 2 CTAs running
GPGPU-Sim uArch: core:  6, cta: 1 initialized @(966,0)
GPGPU-Sim uArch: Shader 6 finished CTA #2 (974,0), 2 CTAs running
GPGPU-Sim uArch: Shader 6 finished CTA #0 (974,0), 1 CTAs running
GPGPU-Sim uArch: core:  6, cta: 0 initialized @(975,0)
GPGPU-Sim uArch: core:  6, cta: 2 initialized @(976,0)
GPGPU-Sim uArch: Shader 19 finished CTA #2 (988,0), 2 CTAs running
GPGPU-Sim uArch: Shader 19 finished CTA #0 (988,0), 1 CTAs running
GPGPU-Sim uArch: core: 19, cta: 0 initialized @(989,0)
GPGPU-Sim uArch: core: 19, cta: 2 initialized @(989,0)
GPGPU-Sim uArch: Shader 25 finished CTA #1 (993,0), 2 CTAs running
GPGPU-Sim uArch: core: 25, cta: 1 initialized @(994,0)
GPGPU-Sim uArch: cycles simulated: 1000  inst.: 330120 (ipc=330.1) sim_rate=330120 (inst/sec) elapsed = 0:0:00:01 / Mon Nov 28 14:19:14 2011
GPGPU-Sim uArch: Shader 25 finished CTA #2 (1002,0), 2 CTAs running
GPGPU-Sim uArch: Shader 25 finished CTA #0 (1002,0), 1 CTAs running
GPGPU-Sim uArch: core: 25, cta: 0 initialized @(1003,0)
GPGPU-Sim uArch: core: 25, cta: 2 initialized @(1004,0)
GPGPU-Sim uArch: Shader 19 finished CTA #1 (1005,0), 2 CTAs running
GPGPU-Sim uArch: core: 19, cta: 1 initialized @(1006,0)
GPGPU-Sim uArch: Shader 10 finished CTA #1 (1032,0), 2 CTAs running
GPGPU-Sim uArch: core: 10, cta: 1 initialized @(1033,0)
GPGPU-Sim uArch: Shader 21 finished CTA #1 (1044,0), 2 CTAs running
GPGPU-Sim uArch: core: 21, cta: 1 initialized @(1045,0)
GPGPU-Sim uArch: Shader 5 finished CTA #0 (1050,0), 2 CTAs running
GPGPU-Sim uArch: Shader 5 finished CTA #1 (1050,0), 1 CTAs running
GPGPU-Sim uArch: core:  5, cta: 0 initialized @(1051,0)
GPGPU-Sim uArch: core:  5, cta: 1 initialized @(1051,0)
GPGPU-Sim uArch: Shader 21 finished CTA #2 (1053,0), 2 CTAs running
GPGPU-Sim uArch: Shader 21 finished CTA #0 (1053,0), 1 CTAs running
GPGPU-Sim uArch: core: 21, cta: 0 initialized @(1054,0)
GPGPU-Sim uArch: core: 21, cta: 2 initialized @(1054,0)
GPGPU-Sim uArch: Shader 20 finished CTA #1 (1054,0), 2 CTAs running
GPGPU-Sim uArch: core: 20, cta: 1 initialized @(1055,0)
GPGPU-Sim uArch: Shader 10 finished CTA #2 (1059,0), 2 CTAs running
GPGPU-Sim uArch: Shader 10 finished CTA #0 (1059,0), 1 CTAs running
GPGPU-Sim uArch: core: 10, cta: 0 initialized @(1060,0)
GPGPU-Sim uArch: core: 10, cta: 2 initialized @(1060,0)
GPGPU-Sim uArch: Shader 16 finished CTA #2 (1062,0), 2 CTAs running
GPGPU-Sim uArch: core: 16, cta: 2 initialized @(1063,0)
GPGPU-Sim uArch: Shader 2 finished CTA #1 (1063,0), 2 CTAs running
GPGPU-Sim uArch: Shader 20 finished CTA #2 (1063,0), 2 CTAs running
GPGPU-Sim uArch: Shader 20 finished CTA #0 (1063,0), 1 CTAs running
GPGPU-Sim uArch: core: 20, cta: 0 initialized @(1064,0)
GPGPU-Sim uArch: core:  2, cta: 1 initialized @(1064,0)
GPGPU-Sim uArch: core: 20, cta: 2 initialized @(1064,0)
GPGPU-Sim uArch: Shader 7 finished CTA #1 (1065,0), 2 CTAs running
GPGPU-Sim uArch: core:  7, cta: 1 initialized @(1066,0)
GPGPU-Sim uArch: Shader 5 finished CTA #2 (1067,0), 2 CTAs running
GPGPU-Sim uArch: core:  5, cta: 2 initialized @(1068,0)
GPGPU-Sim uArch: Shader 22 finished CTA #1 (1068,0), 2 CTAs running
GPGPU-Sim uArch: core: 22, cta: 1 initialized @(1069,0)
GPGPU-Sim uArch: Shader 16 finished CTA #0 (1071,0), 2 CTAs running
GPGPU-Sim uArch: Shader 16 finished CTA #1 (1071,0), 1 CTAs running
GPGPU-Sim uArch: core: 16, cta: 0 initialized @(1072,0)
GPGPU-Sim uArch: core: 16, cta: 1 initialized @(1072,0)
GPGPU-Sim uArch: Shader 2 finished CTA #2 (1072,0), 2 CTAs running
GPGPU-Sim uArch: Shader 2 finished CTA #0 (1072,0), 1 CTAs running
GPGPU-Sim uArch: core:  2, cta: 0 initialized @(1073,0)
GPGPU-Sim uArch: core:  2, cta: 2 initialized @(1073,0)
GPGPU-Sim uArch: Shader 12 finished CTA #0 (1076,0), 2 CTAs running
GPGPU-Sim uArch: Shader 12 finished CTA #1 (1076,0), 1 CTAs running
GPGPU-Sim uArch: core: 12, cta: 0 initialized @(1077,0)
GPGPU-Sim uArch: core: 12, cta: 1 initialized @(1077,0)
GPGPU-Sim uArch: Shader 22 finished CTA #2 (1077,0), 2 CTAs running
GPGPU-Sim uArch: Shader 22 finished CTA #0 (1077,0), 1 CTAs running
GPGPU-Sim uArch: core: 22, cta: 0 initialized @(1078,0)
GPGPU-Sim uArch: core: 22, cta: 2 initialized @(1078,0)
GPGPU-Sim uArch: Shader 7 finished CTA #0 (1080,0), 2 CTAs running
GPGPU-Sim uArch: core:  7, cta: 0 initialized @(1081,0)
GPGPU-Sim PTX: 400000 instructions simulated : ctaid=(53,0,0) tid=(147,0,0)
GPGPU-Sim uArch: Shader 11 finished CTA #2 (1085,0), 2 CTAs running
GPGPU-Sim uArch: core: 11, cta: 2 initialized @(1086,0)
GPGPU-Sim uArch: Shader 11 finished CTA #1 (1086,0), 2 CTAs running
GPGPU-Sim uArch: Shader 17 finished CTA #1 (1086,0), 2 CTAs running
GPGPU-Sim uArch: core: 17, cta: 1 initialized @(1087,0)
GPGPU-Sim uArch: core: 11, cta: 1 initialized @(1087,0)
GPGPU-Sim uArch: Shader 26 finished CTA #1 (1091,0), 2 CTAs running
GPGPU-Sim uArch: core: 26, cta: 1 initialized @(1092,0)
GPGPU-Sim uArch: Shader 12 finished CTA #2 (1093,0), 2 CTAs running
GPGPU-Sim uArch: core: 12, cta: 2 initialized @(1094,0)
GPGPU-Sim uArch: Shader 11 finished CTA #0 (1094,0), 2 CTAs running
GPGPU-Sim uArch: core: 11, cta: 0 initialized @(1095,0)
GPGPU-Sim uArch: Shader 17 finished CTA #2 (1095,0), 2 CTAs running
GPGPU-Sim uArch: Shader 17 finished CTA #0 (1095,0), 1 CTAs running
GPGPU-Sim uArch: core: 17, cta: 0 initialized @(1096,0)
GPGPU-Sim uArch: core: 17, cta: 2 initialized @(1096,0)
GPGPU-Sim uArch: Shader 7 finished CTA #2 (1097,0), 2 CTAs running
GPGPU-Sim uArch: core:  7, cta: 2 initialized @(1098,0)
GPGPU-Sim uArch: Shader 26 finished CTA #2 (1100,0), 2 CTAs running
GPGPU-Sim uArch: Shader 26 finished CTA #0 (1100,0), 1 CTAs running
GPGPU-Sim uArch: core: 26, cta: 0 initialized @(1101,0)
GPGPU-Sim uArch: core: 26, cta: 2 initialized @(1101,0)
GPGPU-Sim uArch: Shader 13 finished CTA #1 (1103,0), 2 CTAs running
GPGPU-Sim uArch: core: 13, cta: 1 initialized @(1104,0)
GPGPU-Sim uArch: Shader 8 finished CTA #0 (1108,0), 2 CTAs running
GPGPU-Sim uArch: Shader 8 finished CTA #1 (1108,0), 1 CTAs running
GPGPU-Sim uArch: core:  8, cta: 0 initialized @(1109,0)
GPGPU-Sim uArch: core:  8, cta: 1 initialized @(1109,0)
GPGPU-Sim uArch: Shader 23 finished CTA #1 (1114,0), 2 CTAs running
GPGPU-Sim uArch: core: 23, cta: 1 initialized @(1115,0)
GPGPU-Sim uArch: Shader 8 finished CTA #2 (1125,0), 2 CTAs running
GPGPU-Sim uArch: Shader 23 finished CTA #2 (1125,0), 2 CTAs running
GPGPU-Sim uArch: Shader 23 finished CTA #0 (1125,0), 1 CTAs running
GPGPU-Sim uArch: core:  8, cta: 2 initialized @(1126,0)
GPGPU-Sim uArch: core: 23, cta: 0 initialized @(1127,0)
GPGPU-Sim uArch: core: 23, cta: 2 initialized @(1127,0)
GPGPU-Sim uArch: Shader 14 finished CTA #1 (1127,0), 2 CTAs running
GPGPU-Sim uArch: core: 14, cta: 1 initialized @(1128,0)
GPGPU-Sim uArch: Shader 13 finished CTA #2 (1130,0), 2 CTAs running
GPGPU-Sim uArch: Shader 13 finished CTA #0 (1130,0), 1 CTAs running
GPGPU-Sim uArch: core: 13, cta: 0 initialized @(1131,0)
GPGPU-Sim uArch: Shader 28 finished CTA #0 (1131,0), 2 CTAs running
GPGPU-Sim uArch: core: 28, cta: 0 initialized @(1132,0)
GPGPU-Sim uArch: Shader 27 finished CTA #2 (1132,0), 2 CTAs running
GPGPU-Sim uArch: core: 13, cta: 2 initialized @(1133,0)
GPGPU-Sim uArch: Shader 27 finished CTA #0 (1133,0), 1 CTAs running
GPGPU-Sim uArch: core: 27, cta: 0 initialized @(1134,0)
GPGPU-Sim uArch: core: 27, cta: 2 initialized @(1134,0)
GPGPU-Sim uArch: Shader 14 finished CTA #2 (1136,0), 2 CTAs running
GPGPU-Sim uArch: Shader 14 finished CTA #0 (1136,0), 1 CTAs running
GPGPU-Sim uArch: core: 14, cta: 0 initialized @(1137,0)
GPGPU-Sim uArch: core: 14, cta: 2 initialized @(1137,0)
GPGPU-Sim uArch: Shader 29 finished CTA #1 (1138,0), 2 CTAs running
GPGPU-Sim uArch: core: 29, cta: 1 initialized @(1139,0)
GPGPU-Sim uArch: Shader 28 finished CTA #1 (1140,0), 2 CTAs running
GPGPU-Sim uArch: Shader 28 finished CTA #2 (1140,0), 1 CTAs running
GPGPU-Sim uArch: core: 28, cta: 1 initialized @(1141,0)
GPGPU-Sim uArch: core: 28, cta: 2 initialized @(1142,0)
GPGPU-Sim uArch: Shader 27 finished CTA #1 (1150,0), 2 CTAs running
GPGPU-Sim uArch: core: 27, cta: 1 initialized @(1151,0)
GPGPU-Sim uArch: Shader 29 finished CTA #2 (1159,0), 2 CTAs running
GPGPU-Sim uArch: Shader 29 finished CTA #0 (1159,0), 1 CTAs running
GPGPU-Sim uArch: core: 29, cta: 0 initialized @(1160,0)
GPGPU-Sim uArch: core: 29, cta: 2 initialized @(1161,0)
GPGPU-Sim PTX: 500000 instructions simulated : ctaid=(172,0,0) tid=(11,0,0)
GPGPU-Sim uArch: Shader 3 finished CTA #1 (1245,0), 2 CTAs running